%nproc=4
%mem=4GB
#B3LYP/6-31G* em=gd3bj pop=MK iop(6/33=2,6/42=6) opt

remark line goes here

0   1
    C    0.5100000000       33.7950000000       25.3510000000     
    C   -0.6870000000       33.4170000000       26.0550000000     
    C    1.6270000000       33.4200000000       26.2310000000     
    C    1.0540000000       32.8550000000       27.3720000000     
    C    3.1190000000       33.6010000000       25.9780000000     
    C   -0.8540000000       34.6200000000       23.4870000000     
    C   -2.0390000000       34.2480000000       24.2000000000     
    C    3.5660000000       32.9680000000       24.6450000000     
    C   -0.9630000000       35.2150000000       22.1870000000     
    C    3.5350000000       31.4380000000       24.7380000000     
    C    4.2280000000       30.8200000000       23.5120000000     
    C    6.4120000000       30.3520000000       24.5190000000     
    C    7.7130000000       31.3930000000       22.1280000000     
    C    7.8740000000       30.8140000000       24.5420000000     
    C   10.6490000000       31.1530000000       24.2650000000     
    C   11.9530000000       30.7140000000       21.7920000000     
    C    0.4180000000       34.3960000000       24.0660000000     
    N   -0.3110000000       32.8600000000       27.2560000000     
    C   -1.9520000000       33.6540000000       25.4670000000     
    O   -3.2550000000       34.4690000000       23.6440000000     
    N   -1.0640000000       35.6660000000       21.1500000000     
    N    5.6700000000       31.1410000000       23.5010000000     
    C    6.2370000000       30.9450000000       22.1400000000     
    N    8.4620000000       30.6430000000       23.1780000000     
    C    9.8800000000       30.7960000000       23.1100000000     
    C   10.5600000000       30.5800000000       21.8710000000     
    C   12.0390000000       31.2850000000       24.1840000000     
    C   12.7040000000       31.0650000000       22.9480000000     
    C   14.1280000000       31.1880000000       22.8760000000     
    N   15.2590000000       31.2660000000       22.8340000000     
    H    1.6040000000       32.4720000000       28.2190000000     
    H    3.3574000000       34.6743000000       25.9429000000     
    H    3.6889000000       33.1252000000       26.7897000000     
    H    4.5895000000       33.3008000000       24.4176000000     
    H    2.8864000000       33.3007000000       23.8466000000     
    H    4.0591000000       31.1154000000       25.6497000000     
    H    2.4908000000       31.0939000000       24.7741000000     
    H    4.1103000000       29.7266000000       23.5367000000     
    H    3.7712000000       31.2173000000       22.5936000000     
    H    6.3692000000       29.2831000000       24.2628000000     
    H    5.9620000000       30.5097000000       25.5103000000     
    H    8.1516000000       31.1838000000       21.1412000000     
    H    7.7703000000       32.4721000000       22.3334000000     
    H    7.9192000000       31.8734000000       24.8345000000     
    H    8.4384000000       30.2091000000       25.2670000000     
    H   10.1500000000       31.3220000000       25.2080000000     
    H   12.4570000000       30.5500000000       20.8510000000     
    H    1.3140000000       34.6800000000       23.5340000000     
    H   -1.0766000000       32.4982000000       27.9581000000     
    H   -2.8520000000       33.3770000000       25.9950000000     
    H    5.6661000000       31.5441000000       21.4153000000     
    H    6.1744000000       29.8814000000       21.8665000000     
    H    9.9960000000       30.3120000000       20.9900000000     
    H   12.6070000000       31.5540000000       25.0620000000     
    H    5.7780000000       32.2019000000       23.7707000000     


