pdb2vci-lig
                    3D
 Structure written by MMmdl.
 85 88  0  0  1  0            999 V2000
    2.2801   -6.4813    4.6646 C   0  0  0  0  0  0
    3.5949   -7.2713    4.5469 C   0  0  0  0  0  0
    3.3128   -8.6621    4.4576 O   0  0  0  0  0  0
    2.5354   -8.9732    3.3083 C   0  0  0  0  0  0
    1.1842   -8.2441    3.3894 C   0  0  0  0  0  0
    1.3884   -6.7811    3.5164 N   0  3  0  0  0  0
    0.1045   -6.0347    3.5464 C   0  0  0  0  0  0
    0.2534   -4.5464    3.1625 C   0  0  1  0  0  0
    0.7586   -4.3671    1.7164 C   0  0  0  0  0  0
    0.8560   -2.8845    1.3208 C   0  0  0  0  0  0
   -1.0854   -3.8062    3.3383 C   0  0  0  0  0  0
   -0.9721   -2.3252    2.9460 C   0  0  0  0  0  0
   -0.4924   -2.1504    1.4873 C   0  0  1  0  0  0
   -0.4245   -0.6473    1.0927 C   0  0  2  0  0  0
   -1.7623    0.1019    1.1088 C   0  0  2  0  0  0
   -3.0235   -0.6545    0.6001 C   0  0  1  0  0  0
   -4.1703    0.1710    0.6530 O   0  0  0  0  0  0
   -2.9891   -1.0400   -0.8297 N   0  3  0  0  0  0
   -3.9259   -2.1149   -1.2174 C   0  0  0  0  0  0
   -3.7662   -2.4692   -2.6984 C   0  0  0  0  0  0
   -1.4606    1.2510    0.2745 N   0  0  0  0  0  0
   -0.6906    0.7168   -0.8289 O   0  0  0  0  0  0
    0.1131   -0.3392   -0.3165 C   0  0  1  0  0  0
    1.6401   -0.0247   -0.4250 C   0  0  1  0  0  0
    2.2018   -0.4095   -1.8114 C   0  0  0  0  0  0
    1.8313    0.5967   -2.9326 C   0  0  2  0  0  0
    2.3196    0.1379   -4.3411 C   0  0  0  0  0  0
    1.7324   -1.2262   -4.7551 C   0  0  0  0  0  0
    2.0052    1.1650   -5.4463 C   0  0  0  0  0  0
    2.3148    2.0205   -2.5392 C   0  0  2  0  0  0
    3.7283    2.0985   -2.5637 O   0  0  0  0  0  0
    1.8091    2.4541   -1.1505 C   0  0  0  0  0  0
    2.1160    1.4084   -0.0614 C   0  0  1  0  0  0
    1.6259    1.8499    1.1870 O   0  0  0  0  0  0
    1.7759   -6.7385    5.5975 H   0  0  0  0  0  0
    2.5073   -5.4168    4.7066 H   0  0  0  0  0  0
    4.1680   -6.9470    3.6768 H   0  0  0  0  0  0
    4.2189   -7.0934    5.4231 H   0  0  0  0  0  0
    3.0754   -8.6959    2.4014 H   0  0  0  0  0  0
    2.3786  -10.0513    3.2687 H   0  0  0  0  0  0
    0.5987   -8.4615    2.4953 H   0  0  0  0  0  0
    0.6128   -8.6096    4.2442 H   0  0  0  0  0  0
   -0.5968   -6.4978    2.8504 H   0  0  0  0  0  0
   -0.3427   -6.1327    4.5369 H   0  0  0  0  0  0
    0.9689   -4.0742    3.8355 H   0  0  0  0  0  0
    1.7388   -4.8303    1.5999 H   0  0  0  0  0  0
    0.0913   -4.8831    1.0247 H   0  0  0  0  0  0
    1.6212   -2.3958    1.9255 H   0  0  0  0  0  0
    1.1936   -2.8303    0.2862 H   0  0  0  0  0  0
   -1.8578   -4.2839    2.7337 H   0  0  0  0  0  0
   -1.4164   -3.8805    4.3747 H   0  0  0  0  0  0
   -1.9378   -1.8458    3.0999 H   0  0  0  0  0  0
   -0.2781   -1.8249    3.6230 H   0  0  0  0  0  0
   -1.2019   -2.6507    0.8278 H   0  0  0  0  0  0
    0.2196   -0.1569    1.8215 H   0  0  0  0  0  0
   -1.9689    0.4540    2.1202 H   0  0  0  0  0  0
   -3.2139   -1.5350    1.2126 H   0  0  0  0  0  0
   -4.5952    0.0464    1.4886 H   0  0  0  0  0  0
   -3.1667   -0.2189   -1.3902 H   0  0  0  0  0  0
   -3.7359   -2.9986   -0.6070 H   0  0  0  0  0  0
   -4.9518   -1.8005   -1.0217 H   0  0  0  0  0  0
   -4.4570   -3.2629   -2.9837 H   0  0  0  0  0  0
   -2.7550   -2.8149   -2.9152 H   0  0  0  0  0  0
   -3.9705   -1.6076   -3.3347 H   0  0  0  0  0  0
   -2.3060    1.6218   -0.1363 H   0  0  0  0  0  0
   -0.1118   -1.2005   -0.9464 H   0  0  0  0  0  0
    2.1370   -0.6893    0.2802 H   0  0  0  0  0  0
    3.2881   -0.4848   -1.7464 H   0  0  0  0  0  0
    1.8583   -1.4136   -2.0529 H   0  0  0  0  0  0
    0.7432    0.6384   -2.9850 H   0  0  0  0  0  0
    3.4038    0.0225   -4.3089 H   0  0  0  0  0  0
    0.6432   -1.2235   -4.7010 H   0  0  0  0  0  0
    2.1006   -2.0390   -4.1309 H   0  0  0  0  0  0
    2.0098   -1.4794   -5.7787 H   0  0  0  0  0  0
    0.9417    1.4036   -5.4761 H   0  0  0  0  0  0
    2.2855    0.7849   -6.4292 H   0  0  0  0  0  0
    2.5571    2.0942   -5.3085 H   0  0  0  0  0  0
    1.9413    2.7517   -3.2554 H   0  0  0  0  0  0
    4.0246    1.9105   -3.4413 H   0  0  0  0  0  0
    2.2579    3.4109   -0.8797 H   0  0  0  0  0  0
    0.7387    2.6459   -1.2040 H   0  0  0  0  0  0
    3.2004    1.3710    0.0502 H   0  0  0  0  0  0
    1.9713    1.2860    1.8616 H   0  0  0  0  0  0
   -2.0552   -1.3656   -1.0339 H   0  0  0  0  0  0
    1.8736   -6.4903    2.6795 H   0  0  0  0  0  0
  1  2  1  0  0  0
  1  6  1  0  0  0
  1 35  1  0  0  0
  1 36  1  0  0  0
  2  3  1  0  0  0
  2 37  1  0  0  0
  2 38  1  0  0  0
  3  4  1  0  0  0
  4  5  1  0  0  0
  4 39  1  0  0  0
  4 40  1  0  0  0
  5  6  1  0  0  0
  5 41  1  0  0  0
  5 42  1  0  0  0
  6  7  1  0  0  0
  6 85  1  0  0  0
  7  8  1  0  0  0
  7 43  1  0  0  0
  7 44  1  0  0  0
  8  9  1  0  0  0
  8 11  1  0  0  0
  8 45  1  0  0  0
  9 10  1  0  0  0
  9 46  1  0  0  0
  9 47  1  0  0  0
 10 13  1  0  0  0
 10 48  1  0  0  0
 10 49  1  0  0  0
 11 12  1  0  0  0
 11 50  1  0  0  0
 11 51  1  0  0  0
 12 13  1  0  0  0
 12 52  1  0  0  0
 12 53  1  0  0  0
 13 14  1  0  0  0
 13 54  1  0  0  0
 14 15  1  0  0  0
 14 23  1  0  0  0
 14 55  1  0  0  0
 15 16  1  0  0  0
 15 21  1  0  0  0
 15 56  1  0  0  0
 16 17  1  0  0  0
 16 18  1  0  0  0
 16 57  1  0  0  0
 17 58  1  0  0  0
 18 19  1  0  0  0
 18 59  1  0  0  0
 18 84  1  0  0  0
 19 20  1  0  0  0
 19 60  1  0  0  0
 19 61  1  0  0  0
 20 62  1  0  0  0
 20 63  1  0  0  0
 20 64  1  0  0  0
 21 22  1  0  0  0
 21 65  1  0  0  0
 22 23  1  0  0  0
 23 24  1  0  0  0
 23 66  1  0  0  0
 24 25  1  0  0  0
 24 33  1  0  0  0
 24 67  1  0  0  0
 25 26  1  0  0  0
 25 68  1  0  0  0
 25 69  1  0  0  0
 26 27  1  0  0  0
 26 30  1  0  0  0
 26 70  1  0  0  0
 27 28  1  0  0  0
 27 29  1  0  0  0
 27 71  1  0  0  0
 28 72  1  0  0  0
 28 73  1  0  0  0
 28 74  1  0  0  0
 29 75  1  0  0  0
 29 76  1  0  0  0
 29 77  1  0  0  0
 30 31  1  0  0  0
 30 32  1  0  0  0
 30 78  1  0  0  0
 31 79  1  0  0  0
 32 33  1  0  0  0
 32 80  1  0  0  0
 32 81  1  0  0  0
 33 34  1  0  0  0
 33 82  1  0  0  0
 34 83  1  0  0  0
M  CHG  2   6   1  18   1
M  END
> <entry id>
65

> <entry name>
pdb2vci-lig.1

> <PDB format version>
3.0

> <Source Path>
C:\Users\zzy\Desktop\hsp90-33sys\crystal-ligand

> <Source File>
pdb2vci-lig.pdb

> <Source File Index>
1

> <source file>
ligprep_hsp90-33system.maegz

> <source file index>
32

> <mmshare version>
37011

> <Ionization Penalty>
0.6536

> <Ionization Penalty Charging>
0.3173

> <Ionization Penalty Neutral>
0.3363

> <State Penalty>
0

> <Charging Adjusted Penalty>
0.317313

> <Tot Q>
2

> <Tot abs Q>
2

> <Chemistry Notes>
This compound contains an acetal/aminal-like group ( X-CH(R)-Y where X, Y are N, S, or O) that may be acid/base labile, releasing an aldehyde. This compound has a N-S or N-O group and may undergo hydrolysis at high or low pH.

> <i_f3d_flags>
0

> <Force Field>
OPLS_2005

> <Energy>
80.4834

> <Chiralities Consistent>
1

> <Variant>
pdb2vci-lig-1

> <job name>
ligprep_hsp90-33system

> <tautomer probability>
1

> <subgroupid>
ligprep_hsp90-33system-out1

> <subgroup title>
ligprep_hsp90-33system-out1

> <subgroup collapsed>
0

$$$$
