pdb2ykj-lig
                    3D
 Structure written by MMmdl.
 82 87  0  0  1  0            999 V2000
   -5.1662    8.3994   -0.2828 C   0  0  0  0  0  0
   -3.9558    9.0210   -0.8372 N   0  0  0  0  0  0
   -2.7415    8.2635   -0.5169 C   0  0  0  0  0  0
   -1.8397    5.8870   -0.9072 N   0  3  0  0  0  0
   -5.3561    6.9447   -0.7836 C   0  0  0  0  0  0
   -3.9384    4.8029   -0.9200 N   0  3  0  0  0  0
   -2.4724    4.5337   -0.9543 C   0  0  1  0  0  0
    0.1246   -0.2261   -0.2050 N   0  3  0  0  0  0
   -4.0801    6.1783   -0.4401 C   0  0  1  0  0  0
    3.7368   -0.7181    3.6822 N   0  0  0  0  0  0
   -2.9177    6.8597   -1.1063 C   0  0  1  0  0  0
    3.7024   -3.0223    2.9553 N   0  3  0  0  0  0
   -2.0669    3.6683   -2.1957 C   0  0  1  0  0  0
    0.5180    3.2981   -1.1304 C   0  0  0  0  0  0
    0.4701    4.2073   -2.3730 C   0  0  0  0  0  0
   -0.9216    4.2796   -3.0440 C   0  0  0  0  0  0
    1.5942   -0.3569   -0.1082 C   0  0  1  0  0  0
    2.0712   -0.9175    1.2537 C   0  0  2  0  0  0
    1.8023   -1.3090   -1.1287 O   0  0  0  0  0  0
    1.7510    0.0246    2.4297 C   0  0  0  0  0  0
    2.2917   -0.5266    3.7588 C   0  0  0  0  0  0
   -0.4041    1.1485   -0.0324 C   0  0  1  0  0  0
   -0.2468    1.9777   -1.3387 C   0  0  1  0  0  0
   -1.6686    2.1759   -1.9405 C   0  0  1  0  0  0
   -1.9169    1.1454    0.2536 C   0  0  1  0  0  0
   -2.5643    1.2241   -1.1236 C   0  0  1  0  0  0
   -4.0839    1.4301   -1.0324 C   0  0  0  0  0  0
   -4.7057    0.2850   -0.2089 C   0  0  0  0  0  0
   -4.0446    0.1517    1.1805 C   0  0  0  0  0  0
   -2.5138   -0.0085    1.0827 C   0  0  0  0  0  0
    3.5932   -1.1816    1.2537 C   0  0  0  0  0  0
    4.1277   -1.6481    2.6244 C   0  0  1  0  0  0
   -5.1041    8.4167    0.8062 H   0  0  0  0  0  0
   -6.0300    9.0053   -0.5573 H   0  0  0  0  0  0
   -4.0522    9.0906   -1.8409 H   0  0  0  0  0  0
   -1.8780    8.7639   -0.9560 H   0  0  0  0  0  0
   -2.5912    8.2297    0.5630 H   0  0  0  0  0  0
   -1.4436    6.0274    0.0117 H   0  0  0  0  0  0
   -6.2217    6.4867   -0.3040 H   0  0  0  0  0  0
   -5.5413    6.9330   -1.8587 H   0  0  0  0  0  0
   -4.2973    4.7557   -1.8633 H   0  0  0  0  0  0
   -2.1930    4.0461   -0.0245 H   0  0  0  0  0  0
   -0.1653   -0.5562   -1.1146 H   0  0  0  0  0  0
   -3.9421    6.1654    0.6436 H   0  0  0  0  0  0
    4.0924   -1.0301    4.5755 H   0  0  0  0  0  0
   -3.0854    6.9324   -2.1838 H   0  0  0  0  0  0
    4.0160   -3.6547    2.2326 H   0  0  0  0  0  0
    2.6954   -3.0608    3.0203 H   0  0  0  0  0  0
   -2.9360    3.6452   -2.8557 H   0  0  0  0  0  0
    1.5564    3.0892   -0.8707 H   0  0  0  0  0  0
    0.1087    3.8316   -0.2732 H   0  0  0  0  0  0
    0.7994    5.2082   -2.0920 H   0  0  0  0  0  0
    1.1956    3.8552   -3.1076 H   0  0  0  0  0  0
   -0.8674    3.7261   -3.9828 H   0  0  0  0  0  0
   -1.1483    5.3013   -3.3503 H   0  0  0  0  0  0
    2.0993    0.5721   -0.3772 H   0  0  0  0  0  0
    1.5585   -1.8642    1.4329 H   0  0  0  0  0  0
    2.5711   -1.0636   -1.6222 H   0  0  0  0  0  0
    2.1738    1.0131    2.2429 H   0  0  0  0  0  0
    0.6734    0.1575    2.5247 H   0  0  0  0  0  0
    1.7990   -1.4643    4.0177 H   0  0  0  0  0  0
    2.0768    0.1745    4.5657 H   0  0  0  0  0  0
    0.1126    1.6205    0.8032 H   0  0  0  0  0  0
    0.3311    1.3991   -2.0621 H   0  0  0  0  0  0
   -1.6413    1.7386   -2.9410 H   0  0  0  0  0  0
   -2.1426    2.0627    0.7946 H   0  0  0  0  0  0
   -2.4286    0.2423   -1.5832 H   0  0  0  0  0  0
   -4.3210    2.3631   -0.5325 H   0  0  0  0  0  0
   -4.5285    1.4700   -2.0272 H   0  0  0  0  0  0
   -5.7775    0.4499   -0.0947 H   0  0  0  0  0  0
   -4.5984   -0.6548   -0.7526 H   0  0  0  0  0  0
   -4.2790    1.0339    1.7775 H   0  0  0  0  0  0
   -4.4717   -0.6992    1.7124 H   0  0  0  0  0  0
   -2.2904   -0.9714    0.6221 H   0  0  0  0  0  0
   -2.0732   -0.0266    2.0801 H   0  0  0  0  0  0
    3.8541   -1.9180    0.4928 H   0  0  0  0  0  0
    4.1127   -0.2642    0.9719 H   0  0  0  0  0  0
    5.2176   -1.6592    2.5872 H   0  0  0  0  0  0
    4.1074   -3.2998    3.8380 H   0  0  0  0  0  0
   -1.1198    5.9879   -1.6088 H   0  0  0  0  0  0
   -4.4313    4.1456   -0.3318 H   0  0  0  0  0  0
   -0.2866   -0.8281    0.4940 H   0  0  0  0  0  0
  1  2  1  0  0  0
  1  5  1  0  0  0
  1 33  1  0  0  0
  1 34  1  0  0  0
  2  3  1  0  0  0
  2 35  1  0  0  0
  3 11  1  0  0  0
  3 36  1  0  0  0
  3 37  1  0  0  0
  4  7  1  0  0  0
  4 11  1  0  0  0
  4 38  1  0  0  0
  4 80  1  0  0  0
  5  9  1  0  0  0
  5 39  1  0  0  0
  5 40  1  0  0  0
  6  7  1  0  0  0
  6  9  1  0  0  0
  6 41  1  0  0  0
  6 81  1  0  0  0
  7 13  1  0  0  0
  7 42  1  0  0  0
  8 17  1  0  0  0
  8 22  1  0  0  0
  8 43  1  0  0  0
  8 82  1  0  0  0
  9 11  1  0  0  0
  9 44  1  0  0  0
 10 21  1  0  0  0
 10 32  1  0  0  0
 10 45  1  0  0  0
 11 46  1  0  0  0
 12 32  1  0  0  0
 12 47  1  0  0  0
 12 48  1  0  0  0
 12 79  1  0  0  0
 13 16  1  0  0  0
 13 24  1  0  0  0
 13 49  1  0  0  0
 14 15  1  0  0  0
 14 23  1  0  0  0
 14 50  1  0  0  0
 14 51  1  0  0  0
 15 16  1  0  0  0
 15 52  1  0  0  0
 15 53  1  0  0  0
 16 54  1  0  0  0
 16 55  1  0  0  0
 17 18  1  0  0  0
 17 19  1  0  0  0
 17 56  1  0  0  0
 18 20  1  0  0  0
 18 31  1  0  0  0
 18 57  1  0  0  0
 19 58  1  0  0  0
 20 21  1  0  0  0
 20 59  1  0  0  0
 20 60  1  0  0  0
 21 61  1  0  0  0
 21 62  1  0  0  0
 22 23  1  0  0  0
 22 25  1  0  0  0
 22 63  1  0  0  0
 23 24  1  0  0  0
 23 64  1  0  0  0
 24 26  1  0  0  0
 24 65  1  0  0  0
 25 26  1  0  0  0
 25 30  1  0  0  0
 25 66  1  0  0  0
 26 27  1  0  0  0
 26 67  1  0  0  0
 27 28  1  0  0  0
 27 68  1  0  0  0
 27 69  1  0  0  0
 28 29  1  0  0  0
 28 70  1  0  0  0
 28 71  1  0  0  0
 29 30  1  0  0  0
 29 72  1  0  0  0
 29 73  1  0  0  0
 30 74  1  0  0  0
 30 75  1  0  0  0
 31 32  1  0  0  0
 31 76  1  0  0  0
 31 77  1  0  0  0
 32 78  1  0  0  0
M  CHG  4   4   1   6   1   8   1  12   1
M  END
> <entry id>
34

> <entry name>
pdb2ykj-lig.1

> <PDB format version>
3.0

> <Source Path>
C:\Users\zzy\Desktop\hsp90-33sys\crystal-ligand

> <Source File>
pdb2ykj-lig.pdb

> <Source File Index>
1

> <source file>
ligprep_hsp90-33system.maegz

> <source file index>
1

> <mmshare version>
37011

> <Ionization Penalty>
0.0882

> <Ionization Penalty Charging>
0.0202

> <Ionization Penalty Neutral>
0.068

> <State Penalty>
0.0555

> <Charging Adjusted Penalty>
0.0756844

> <Tot Q>
4

> <Tot abs Q>
4

> <Chemistry Notes>
This compound contains an acetal/aminal-like group ( X-CH(R)-Y where X, Y are N, S, or O) that may be acid/base labile, releasing an aldehyde.

> <i_f3d_flags>
0

> <Force Field>
OPLS_2005

> <Energy>
140.415

> <Chiralities Consistent>
1

> <Variant>
pdb2ykj-lig-1

> <job name>
ligprep_hsp90-33system

> <subgroupid>
ligprep_hsp90-33system-out1

> <subgroup title>
ligprep_hsp90-33system-out1

> <subgroup collapsed>
0

$$$$
