pdb2bsm-lig
                    3D
 Structure written by MMmdl.
 64 66  0  0  1  0            999 V2000
   -2.4265   -6.3786   -2.9728 C   0  0  0  0  0  0
   -2.0814   -6.1521   -1.6149 O   0  0  0  0  0  0
   -1.4977   -4.8805   -1.3605 C   0  0  1  0  0  0
   -2.5658   -3.7681   -1.3336 C   0  0  0  0  0  0
   -1.9551   -2.4153   -0.9343 C   0  0  0  0  0  0
   -0.7837   -4.9679   -0.0016 C   0  0  0  0  0  0
   -0.1678   -3.6185    0.4006 C   0  0  0  0  0  0
   -1.2306   -2.4988    0.4308 C   0  0  1  0  0  0
   -0.6368   -1.1513    0.9415 C   0  0  1  0  0  0
    0.3438   -0.4960   -0.0520 C   0  0  2  0  0  0
    1.6788   -0.0809    0.6044 C   0  0  1  0  0  0
    2.5694    0.4696   -0.3453 O   0  0  0  0  0  0
    1.5420    1.0238    1.5803 N   0  3  0  0  0  0
    2.6813    1.1950    2.5057 C   0  0  0  0  0  0
    2.3960    2.3033    3.5232 C   0  0  0  0  0  0
   -0.3768    0.6180   -0.6780 N   0  0  0  0  0  0
   -1.6331    0.7832   -0.0383 N   0  0  0  0  0  0
   -1.6311    0.0038    1.2002 C   0  0  1  0  0  0
   -3.0315   -0.3342    1.7994 C   0  0  2  0  0  0
   -4.0178    0.8504    1.6254 C   0  0  0  0  0  0
   -5.4134    0.5835    2.2217 C   0  0  1  0  0  0
   -6.2531   -0.6641    1.2576 Cl  0  0  0  0  0  0
   -5.3435    0.1474    3.6964 C   0  0  2  0  0  0
   -4.9774    1.2473    4.5069 O   0  0  0  0  0  0
   -4.3441   -1.0029    3.9047 C   0  0  0  0  0  0
   -2.9561   -0.6935    3.3107 C   0  0  1  0  0  0
   -2.1456   -1.8249    3.5501 O   0  0  0  0  0  0
   -2.8051   -7.3945   -3.0841 H   0  0  0  0  0  0
   -1.5592   -6.2733   -3.6257 H   0  0  0  0  0  0
   -3.2064   -5.6979   -3.3129 H   0  0  0  0  0  0
   -0.7514   -4.6577   -2.1258 H   0  0  0  0  0  0
   -3.0423   -3.6674   -2.3082 H   0  0  0  0  0  0
   -3.3556   -4.0335   -0.6297 H   0  0  0  0  0  0
   -1.2649   -2.0978   -1.7156 H   0  0  0  0  0  0
   -2.7459   -1.6667   -0.9052 H   0  0  0  0  0  0
   -1.4909   -5.2870    0.7653 H   0  0  0  0  0  0
   -0.0058   -5.7313   -0.0397 H   0  0  0  0  0  0
    0.2988   -3.7152    1.3815 H   0  0  0  0  0  0
    0.6321   -3.3699   -0.2967 H   0  0  0  0  0  0
   -1.9706   -2.8276    1.1584 H   0  0  0  0  0  0
   -0.1217   -1.3695    1.8778 H   0  0  0  0  0  0
    0.5972   -1.1995   -0.8437 H   0  0  0  0  0  0
    2.1456   -0.9460    1.0780 H   0  0  0  0  0  0
    3.0877   -0.2298   -0.7150 H   0  0  0  0  0  0
    1.3848    1.8851    1.0769 H   0  0  0  0  0  0
    2.8665    0.2561    3.0290 H   0  0  0  0  0  0
    3.5837    1.4351    1.9426 H   0  0  0  0  0  0
    3.2350    2.4252    4.2088 H   0  0  0  0  0  0
    1.5116    2.0738    4.1185 H   0  0  0  0  0  0
    2.2294    3.2608    3.0285 H   0  0  0  0  0  0
    0.1567    1.4820   -0.6052 H   0  0  0  0  0  0
   -2.3574    0.4390   -0.6661 H   0  0  0  0  0  0
   -1.1530    0.6571    1.9311 H   0  0  0  0  0  0
   -3.4601   -1.1767    1.2600 H   0  0  0  0  0  0
   -3.5939    1.7403    2.0928 H   0  0  0  0  0  0
   -4.1440    1.0944    0.5704 H   0  0  0  0  0  0
   -6.0232    1.4837    2.1339 H   0  0  0  0  0  0
   -6.3327   -0.1701    4.0285 H   0  0  0  0  0  0
   -5.6487    1.9092    4.4371 H   0  0  0  0  0  0
   -4.2580   -1.2269    4.9691 H   0  0  0  0  0  0
   -4.7403   -1.9066    3.4393 H   0  0  0  0  0  0
   -2.5138    0.1413    3.8560 H   0  0  0  0  0  0
   -2.1426   -2.0003    4.4789 H   0  0  0  0  0  0
    0.7263    0.8295    2.1431 H   0  0  0  0  0  0
  1  2  1  0  0  0
  1 28  1  0  0  0
  1 29  1  0  0  0
  1 30  1  0  0  0
  2  3  1  0  0  0
  3  4  1  0  0  0
  3  6  1  0  0  0
  3 31  1  0  0  0
  4  5  1  0  0  0
  4 32  1  0  0  0
  4 33  1  0  0  0
  5  8  1  0  0  0
  5 34  1  0  0  0
  5 35  1  0  0  0
  6  7  1  0  0  0
  6 36  1  0  0  0
  6 37  1  0  0  0
  7  8  1  0  0  0
  7 38  1  0  0  0
  7 39  1  0  0  0
  8  9  1  0  0  0
  8 40  1  0  0  0
  9 10  1  0  0  0
  9 18  1  0  0  0
  9 41  1  0  0  0
 10 11  1  0  0  0
 10 16  1  0  0  0
 10 42  1  0  0  0
 11 12  1  0  0  0
 11 13  1  0  0  0
 11 43  1  0  0  0
 12 44  1  0  0  0
 13 14  1  0  0  0
 13 45  1  0  0  0
 13 64  1  0  0  0
 14 15  1  0  0  0
 14 46  1  0  0  0
 14 47  1  0  0  0
 15 48  1  0  0  0
 15 49  1  0  0  0
 15 50  1  0  0  0
 16 17  1  0  0  0
 16 51  1  0  0  0
 17 18  1  0  0  0
 17 52  1  0  0  0
 18 19  1  0  0  0
 18 53  1  0  0  0
 19 20  1  0  0  0
 19 26  1  0  0  0
 19 54  1  0  0  0
 20 21  1  0  0  0
 20 55  1  0  0  0
 20 56  1  0  0  0
 21 22  1  0  0  0
 21 23  1  0  0  0
 21 57  1  0  0  0
 23 24  1  0  0  0
 23 25  1  0  0  0
 23 58  1  0  0  0
 24 59  1  0  0  0
 25 26  1  0  0  0
 25 60  1  0  0  0
 25 61  1  0  0  0
 26 27  1  0  0  0
 26 62  1  0  0  0
 27 63  1  0  0  0
M  CHG  1  13   1
M  END
> <entry id>
63

> <entry name>
pdb2bsm-lig.1

> <PDB format version>
3.0

> <Source Path>
C:\Users\zzy\Desktop\hsp90-33sys\crystal-ligand

> <Source File>
pdb2bsm-lig.pdb

> <Source File Index>
1

> <source file>
ligprep_hsp90-33system.maegz

> <source file index>
30

> <mmshare version>
37011

> <Ionization Penalty>
0.0858

> <Ionization Penalty Charging>
0.0305

> <Ionization Penalty Neutral>
0.0552

> <State Penalty>
0

> <Charging Adjusted Penalty>
0.0305237

> <Tot Q>
1

> <Tot abs Q>
1

> <Chemistry Notes>
This compound contains an acetal/aminal-like group ( X-CH(R)-Y where X, Y are N, S, or O) that may be acid/base labile, releasing an aldehyde.

> <i_f3d_flags>
0

> <Force Field>
OPLS_2005

> <Energy>
62.5255

> <Chiralities Consistent>
1

> <Variant>
pdb2bsm-lig-1

> <job name>
ligprep_hsp90-33system

> <tautomer probability>
1

> <subgroupid>
ligprep_hsp90-33system-out1

> <subgroup title>
ligprep_hsp90-33system-out1

> <subgroup collapsed>
0

$$$$
