pdb2yki-lig
                    3D
 Structure written by MMmdl.
 86 92  0  0  1  0            999 V2000
   -5.7064    3.1227   -7.9134 C   0  0  0  0  0  0
   -6.3554    3.6422   -6.7016 N   0  0  0  0  0  0
   -6.1160    2.7915   -5.5311 C   0  0  0  0  0  0
   -4.0844    1.9391   -4.2005 N   0  3  0  0  0  0
   -4.1743    2.9653   -7.7342 C   0  0  0  0  0  0
   -2.5797    1.8689   -6.0368 N   0  3  0  0  0  0
   -2.7168    1.4983   -4.6007 C   0  0  1  0  0  0
   -0.0282    0.0764    0.0712 N   0  3  0  0  0  0
   -3.9500    2.0789   -6.5101 C   0  0  1  0  0  0
    1.2316   -2.1434    4.1063 N   0  0  0  0  0  0
   -4.5990    2.7354   -5.3199 C   0  0  1  0  0  0
    1.9612   -0.0343    5.1150 N   0  3  0  0  0  0
   -1.5805    2.1012   -3.7357 C   0  0  1  0  0  0
   -0.2225    3.5665   -1.5180 C   0  0  0  0  0  0
   -0.3572    4.1525   -2.9261 C   0  0  0  0  0  0
   -1.6320    3.6348   -3.6026 C   0  0  0  0  0  0
    1.4333   -0.0816    0.2227 C   0  0  1  0  0  0
    1.8339   -0.8842    1.4813 C   0  0  2  0  0  0
    1.7344   -0.7943   -0.9579 O   0  0  0  0  0  0
    1.1265   -2.2592    1.6156 C   0  0  0  0  0  0
    1.4924   -2.9844    2.9356 C   0  0  0  0  0  0
   -0.5122    1.4668   -0.0895 C   0  0  1  0  0  0
   -0.2333    2.0163   -1.5047 C   0  0  1  0  0  0
   -1.3602    1.3958   -2.3677 C   0  0  1  0  0  0
   -2.0460    1.5312   -0.0054 C   0  0  1  0  0  0
   -2.5776    1.1904   -1.4207 C   0  0  2  0  0  0
   -3.1442   -0.2477   -1.5407 C   0  0  0  0  0  0
   -4.0179   -0.6521   -0.3511 C   0  0  0  0  0  0
   -3.1974   -0.5849    0.9398 C   0  0  0  0  0  0
   -2.7352    0.8527    1.2023 C   0  0  0  0  0  0
    1.5614   -0.1212    2.7877 C   0  0  1  0  0  0
    2.0508   -0.9489    3.9688 C   0  0  2  0  0  0
    2.2259    1.3242    4.5853 C   0  0  0  0  0  0
    2.2794    1.2002    3.0481 C   0  0  0  0  0  0
   -6.1550    2.1618   -8.1687 H   0  0  0  0  0  0
   -5.9188    3.7979   -8.7426 H   0  0  0  0  0  0
   -6.0076    4.5729   -6.5159 H   0  0  0  0  0  0
   -6.6138    3.2247   -4.6631 H   0  0  0  0  0  0
   -6.5364    1.7980   -5.6928 H   0  0  0  0  0  0
   -4.6681    1.1223   -4.0851 H   0  0  0  0  0  0
   -3.7314    2.5145   -8.6230 H   0  0  0  0  0  0
   -3.7044    3.9410   -7.6015 H   0  0  0  0  0  0
   -2.0803    2.7449   -6.1007 H   0  0  0  0  0  0
   -2.6873    0.4095   -4.5441 H   0  0  0  0  0  0
   -0.3367   -0.4769   -0.7152 H   0  0  0  0  0  0
   -4.3907    1.0950   -6.6867 H   0  0  0  0  0  0
    0.2546   -1.8862    4.1153 H   0  0  0  0  0  0
   -4.2130    3.7492   -5.1899 H   0  0  0  0  0  0
    1.0224   -0.0587    5.4865 H   0  0  0  0  0  0
   -0.6653    1.8925   -4.2938 H   0  0  0  0  0  0
    0.6984    3.9264   -1.0578 H   0  0  0  0  0  0
   -1.0295    3.9765   -0.9131 H   0  0  0  0  0  0
   -0.3826    5.2413   -2.8708 H   0  0  0  0  0  0
    0.5181    3.8938   -3.5232 H   0  0  0  0  0  0
   -1.7253    4.0982   -4.5852 H   0  0  0  0  0  0
   -2.5073    3.9420   -3.0289 H   0  0  0  0  0  0
    1.9464    0.8808    0.1927 H   0  0  0  0  0  0
    2.9082   -1.0674    1.4197 H   0  0  0  0  0  0
    2.6511   -0.6755   -1.1593 H   0  0  0  0  0  0
    0.0441   -2.1313    1.5822 H   0  0  0  0  0  0
    1.3829   -2.8993    0.7709 H   0  0  0  0  0  0
    2.5423   -3.2812    2.9273 H   0  0  0  0  0  0
    0.9097   -3.9013    3.0277 H   0  0  0  0  0  0
   -0.0596    2.0858    0.6872 H   0  0  0  0  0  0
    0.7363    1.6847   -1.8783 H   0  0  0  0  0  0
   -0.9889    0.4031   -2.6264 H   0  0  0  0  0  0
   -2.2740    2.5860    0.1459 H   0  0  0  0  0  0
   -3.3727    1.9015   -1.6430 H   0  0  0  0  0  0
   -3.7151   -0.3489   -2.4631 H   0  0  0  0  0  0
   -2.3329   -0.9736   -1.6092 H   0  0  0  0  0  0
   -4.8908   -0.0013   -0.2821 H   0  0  0  0  0  0
   -4.3936   -1.6654   -0.4973 H   0  0  0  0  0  0
   -3.7971   -0.9367    1.7799 H   0  0  0  0  0  0
   -2.3407   -1.2559    0.8736 H   0  0  0  0  0  0
   -2.0898    0.8916    2.0806 H   0  0  0  0  0  0
   -3.6190    1.4377    1.4622 H   0  0  0  0  0  0
    0.4872    0.0535    2.8859 H   0  0  0  0  0  0
    3.1008   -1.2218    3.8446 H   0  0  0  0  0  0
    1.4200    1.9879    4.8998 H   0  0  0  0  0  0
    3.1614    1.7187    4.9832 H   0  0  0  0  0  0
    3.3158    1.1394    2.7127 H   0  0  0  0  0  0
    1.8103    2.0446    2.5424 H   0  0  0  0  0  0
    2.6222   -0.2879    5.8360 H   0  0  0  0  0  0
   -4.0710    2.4764   -3.3450 H   0  0  0  0  0  0
   -2.0994    1.1575   -6.5702 H   0  0  0  0  0  0
   -0.4566   -0.2972    0.9061 H   0  0  0  0  0  0
  1  2  1  0  0  0
  1  5  1  0  0  0
  1 35  1  0  0  0
  1 36  1  0  0  0
  2  3  1  0  0  0
  2 37  1  0  0  0
  3 11  1  0  0  0
  3 38  1  0  0  0
  3 39  1  0  0  0
  4  7  1  0  0  0
  4 11  1  0  0  0
  4 40  1  0  0  0
  4 84  1  0  0  0
  5  9  1  0  0  0
  5 41  1  0  0  0
  5 42  1  0  0  0
  6  7  1  0  0  0
  6  9  1  0  0  0
  6 43  1  0  0  0
  6 85  1  0  0  0
  7 13  1  0  0  0
  7 44  1  0  0  0
  8 17  1  0  0  0
  8 22  1  0  0  0
  8 45  1  0  0  0
  8 86  1  0  0  0
  9 11  1  0  0  0
  9 46  1  0  0  0
 10 21  1  0  0  0
 10 32  1  0  0  0
 10 47  1  0  0  0
 11 48  1  0  0  0
 12 32  1  0  0  0
 12 33  1  0  0  0
 12 49  1  0  0  0
 12 83  1  0  0  0
 13 16  1  0  0  0
 13 24  1  0  0  0
 13 50  1  0  0  0
 14 15  1  0  0  0
 14 23  1  0  0  0
 14 51  1  0  0  0
 14 52  1  0  0  0
 15 16  1  0  0  0
 15 53  1  0  0  0
 15 54  1  0  0  0
 16 55  1  0  0  0
 16 56  1  0  0  0
 17 18  1  0  0  0
 17 19  1  0  0  0
 17 57  1  0  0  0
 18 20  1  0  0  0
 18 31  1  0  0  0
 18 58  1  0  0  0
 19 59  1  0  0  0
 20 21  1  0  0  0
 20 60  1  0  0  0
 20 61  1  0  0  0
 21 62  1  0  0  0
 21 63  1  0  0  0
 22 23  1  0  0  0
 22 25  1  0  0  0
 22 64  1  0  0  0
 23 24  1  0  0  0
 23 65  1  0  0  0
 24 26  1  0  0  0
 24 66  1  0  0  0
 25 26  1  0  0  0
 25 30  1  0  0  0
 25 67  1  0  0  0
 26 27  1  0  0  0
 26 68  1  0  0  0
 27 28  1  0  0  0
 27 69  1  0  0  0
 27 70  1  0  0  0
 28 29  1  0  0  0
 28 71  1  0  0  0
 28 72  1  0  0  0
 29 30  1  0  0  0
 29 73  1  0  0  0
 29 74  1  0  0  0
 30 75  1  0  0  0
 30 76  1  0  0  0
 31 32  1  0  0  0
 31 34  1  0  0  0
 31 77  1  0  0  0
 32 78  1  0  0  0
 33 34  1  0  0  0
 33 79  1  0  0  0
 33 80  1  0  0  0
 34 81  1  0  0  0
 34 82  1  0  0  0
M  CHG  4   4   1   6   1   8   1  12   1
M  END
> <entry id>
66

> <entry name>
pdb2yki-lig.1

> <PDB format version>
3.0

> <Source Path>
C:\Users\zzy\Desktop\hsp90-33sys\crystal-ligand

> <Source File>
pdb2yki-lig.pdb

> <Source File Index>
1

> <source file>
ligprep_hsp90-33system.maegz

> <source file index>
33

> <mmshare version>
37011

> <Ionization Penalty>
0.1293

> <Ionization Penalty Charging>
0.0252

> <Ionization Penalty Neutral>
0.1041

> <State Penalty>
0.0898

> <Charging Adjusted Penalty>
0.115006

> <Tot Q>
4

> <Tot abs Q>
4

> <Chemistry Notes>
This compound contains an acetal/aminal-like group ( X-CH(R)-Y where X, Y are N, S, or O) that may be acid/base labile, releasing an aldehyde.

> <i_f3d_flags>
0

> <Force Field>
OPLS_2005

> <Energy>
152.67

> <Chiralities Consistent>
1

> <Variant>
pdb2yki-lig-1

> <job name>
ligprep_hsp90-33system

> <subgroupid>
ligprep_hsp90-33system-out1

> <subgroup title>
ligprep_hsp90-33system-out1

> <subgroup collapsed>
0

$$$$
