pdb5j27-lig
                    3D
 Structure written by MMmdl.
 66 68  0  0  1  0            999 V2000
   -0.2436   -0.5406    1.3266 C   0  0  1  0  0  0
   -1.7779   -0.5381    1.4521 C   0  0  0  0  0  0
   -2.4282   -1.3010    0.2854 C   0  0  2  0  0  0
   -2.5487    0.7362   -1.4030 C   0  0  1  0  0  0
   -4.1669    0.4647   -2.9845 C   0  0  1  0  0  0
   -4.6505    2.0380   -1.0584 C   0  0  1  0  0  0
   -4.6715    2.0812    0.4890 C   0  0  1  0  0  0
   -5.4165    3.3200    1.0138 C   0  0  0  0  0  0
   -4.0682    3.3614   -1.6253 C   0  0  0  0  0  0
    3.4982   -3.5897    3.3279 C   0  0  0  0  0  0
   -2.0352   -0.7129   -1.0958 C   0  0  1  0  0  0
   -0.4923   -0.8057   -1.1913 C   0  0  0  0  0  0
    0.2247   -0.0381   -0.0599 C   0  0  2  0  0  0
    0.2862    0.2727    2.3531 O   0  0  0  0  0  0
   -3.8246   -1.3947    0.4630 O   0  0  0  0  0  0
   -2.0340    1.2368   -2.6848 N   0  0  0  0  0  0
   -3.0268    1.0535   -3.6661 N   0  0  0  0  0  0
   -4.0106    0.7945   -1.5603 N   0  0  0  0  0  0
   -4.8231    4.6155    0.4433 C   0  0  0  0  0  0
   -4.8247    4.5873   -1.0916 C   0  0  0  0  0  0
   -5.3387    1.0435   -3.5240 O   0  0  0  0  0  0
    2.0566   -0.2261   -0.2589 S   0  0  0  0  0  0
    2.3308    0.2842   -1.8385 O   0  0  0  0  0  0
    2.6885    0.9485    0.7665 O   0  0  0  0  0  0
    2.5040   -1.7989    0.0758 N   0  0  0  0  0  0
    3.1984   -2.0272    1.3394 C   0  0  0  0  0  0
    2.9153   -3.4240    1.9208 C   0  0  0  0  0  0
    3.1512   -2.5236   -1.0083 C   0  0  0  0  0  0
   -5.2904    1.0044    0.9716 F   0  0  0  0  0  0
    0.1143   -1.5584    1.4845 H   0  0  0  0  0  0
   -2.0664   -0.9951    2.3997 H   0  0  0  0  0  0
   -2.1477    0.4856    1.4847 H   0  0  0  0  0  0
   -2.0689   -2.3304    0.3250 H   0  0  0  0  0  0
   -2.2082    1.4034   -0.6135 H   0  0  0  0  0  0
   -4.1612   -0.6152   -3.1346 H   0  0  0  0  0  0
   -5.7014    1.9949   -1.3447 H   0  0  0  0  0  0
   -3.6628    2.0745    0.8979 H   0  0  0  0  0  0
   -6.4713    3.2550    0.7436 H   0  0  0  0  0  0
   -5.3782    3.3435    2.1033 H   0  0  0  0  0  0
   -3.0158    3.4633   -1.3600 H   0  0  0  0  0  0
   -4.1183    3.3726   -2.7135 H   0  0  0  0  0  0
    3.2803   -4.5815    3.7243 H   0  0  0  0  0  0
    3.0787   -2.8562    4.0170 H   0  0  0  0  0  0
    4.5813   -3.4639    3.3220 H   0  0  0  0  0  0
   -2.4322   -1.3833   -1.8586 H   0  0  0  0  0  0
   -0.1987   -1.8554   -1.1443 H   0  0  0  0  0  0
   -0.1432   -0.4600   -2.1635 H   0  0  0  0  0  0
    0.0073    1.0262   -0.1538 H   0  0  0  0  0  0
    1.2300    0.2474    2.2998 H   0  0  0  0  0  0
   -4.1890   -1.8858   -0.2572 H   0  0  0  0  0  0
   -1.1901    0.7359   -2.9552 H   0  0  0  0  0  0
   -3.2789    1.9680   -4.0359 H   0  0  0  0  0  0
   -5.3923    5.4739    0.8006 H   0  0  0  0  0  0
   -3.8033    4.7447    0.8081 H   0  0  0  0  0  0
   -4.3722    5.5003   -1.4800 H   0  0  0  0  0  0
   -5.8520    4.5716   -1.4577 H   0  0  0  0  0  0
   -5.8877    0.3509   -3.8583 H   0  0  0  0  0  0
    1.9633    1.1448   -1.9699 H   0  0  0  0  0  0
    2.3126    1.7916    0.5643 H   0  0  0  0  0  0
    4.2693   -1.8571    1.2198 H   0  0  0  0  0  0
    2.8450   -1.2897    2.0604 H   0  0  0  0  0  0
    3.3291   -4.2025    1.2808 H   0  0  0  0  0  0
    1.8384   -3.5931    1.9602 H   0  0  0  0  0  0
    3.2298   -3.5896   -0.8011 H   0  0  0  0  0  0
    4.1526   -2.1317   -1.1891 H   0  0  0  0  0  0
    2.5733   -2.4147   -1.9264 H   0  0  0  0  0  0
  1  2  1  0  0  0
  1 13  1  0  0  0
  1 14  1  0  0  0
  1 30  1  0  0  0
  2  3  1  0  0  0
  2 31  1  0  0  0
  2 32  1  0  0  0
  3 11  1  0  0  0
  3 15  1  0  0  0
  3 33  1  0  0  0
  4 11  1  0  0  0
  4 16  1  0  0  0
  4 18  1  0  0  0
  4 34  1  0  0  0
  5 17  1  0  0  0
  5 18  1  0  0  0
  5 21  1  0  0  0
  5 35  1  0  0  0
  6  7  1  0  0  0
  6  9  1  0  0  0
  6 18  1  0  0  0
  6 36  1  0  0  0
  7  8  1  0  0  0
  7 29  1  0  0  0
  7 37  1  0  0  0
  8 19  1  0  0  0
  8 38  1  0  0  0
  8 39  1  0  0  0
  9 20  1  0  0  0
  9 40  1  0  0  0
  9 41  1  0  0  0
 10 27  1  0  0  0
 10 42  1  0  0  0
 10 43  1  0  0  0
 10 44  1  0  0  0
 11 12  1  0  0  0
 11 45  1  0  0  0
 12 13  1  0  0  0
 12 46  1  0  0  0
 12 47  1  0  0  0
 13 22  1  0  0  0
 13 48  1  0  0  0
 14 49  1  0  0  0
 15 50  1  0  0  0
 16 17  1  0  0  0
 16 51  1  0  0  0
 17 52  1  0  0  0
 19 20  1  0  0  0
 19 53  1  0  0  0
 19 54  1  0  0  0
 20 55  1  0  0  0
 20 56  1  0  0  0
 21 57  1  0  0  0
 22 23  1  0  0  0
 22 24  1  0  0  0
 22 25  1  0  0  0
 23 58  1  0  0  0
 24 59  1  0  0  0
 25 26  1  0  0  0
 25 28  1  0  0  0
 26 27  1  0  0  0
 26 60  1  0  0  0
 26 61  1  0  0  0
 27 62  1  0  0  0
 27 63  1  0  0  0
 28 64  1  0  0  0
 28 65  1  0  0  0
 28 66  1  0  0  0
M  END
> <entry id>
38

> <entry name>
pdb5j27-lig.1

> <PDB format version>
3.0

> <Source Path>
C:\Users\zzy\Desktop\hsp90-33sys\crystal-ligand

> <Source File>
pdb5j27-lig.pdb

> <Source File Index>
1

> <source file>
ligprep_hsp90-33system.maegz

> <source file index>
5

> <mmshare version>
37011

> <Ionization Penalty>
0.5402

> <Ionization Penalty Charging>
0

> <Ionization Penalty Neutral>
0.5402

> <State Penalty>
0.5286

> <Charging Adjusted Penalty>
0.5286

> <Tot Q>
0

> <Tot abs Q>
0

> <Chemistry Notes>
This compound contains an acetal/aminal-like group ( X-CH(R)-Y where X, Y are N, S, or O) that may be acid/base labile, releasing an aldehyde.

> <i_f3d_flags>
0

> <Force Field>
OPLS_2005

> <Energy>
47.9296

> <Chiralities Consistent>
1

> <Variant>
pdb5j27-lig-1

> <job name>
ligprep_hsp90-33system

> <subgroupid>
ligprep_hsp90-33system-out1

> <subgroup title>
ligprep_hsp90-33system-out1

> <subgroup collapsed>
0

$$$$
