pdb5j86-lig
                    3D
 Structure written by MMmdl.
 73 76  0  0  1  0            999 V2000
   -4.2083   -1.9955   -3.7826 C   0  0  0  0  0  0
   -0.3917   -1.1994    0.8751 C   0  0  1  0  0  0
   -1.8399   -1.5808    0.5136 C   0  0  0  0  0  0
    0.2067   -0.1546   -0.1055 C   0  0  1  0  0  0
   -2.3465    0.3430   -2.0485 C   0  0  1  0  0  0
   -2.8167    0.6271   -4.3089 C   0  0  2  0  0  0
   -4.4933   -0.7297   -2.9357 C   0  0  1  0  0  0
   -6.6828   -2.4702   -3.9550 C   0  0  0  0  0  0
   -6.2355    1.1011   -2.4479 C   0  0  0  0  0  0
    1.6770    0.2339    0.2487 C   0  0  2  0  0  0
    2.5737    2.5839    0.1707 C   0  0  0  0  0  0
    3.0671    1.0882   -1.7471 C   0  0  0  0  0  0
    5.3546    4.3251    0.6532 C   0  0  0  0  0  0
    5.1401    2.8490    0.3147 C   0  0  0  0  0  0
   -2.0025   -2.0057   -0.9573 C   0  0  1  0  0  0
   -1.4510   -0.9443   -1.9473 C   0  0  2  0  0  0
    0.0246   -0.6482   -1.5650 C   0  0  0  0  0  0
   -1.6117    1.5105   -2.5402 N   0  0  0  0  0  0
   -3.4300    0.2831   -3.0322 N   0  0  0  0  0  0
   -1.3624   -3.2496   -1.1689 O   0  0  0  0  0  0
   -0.4122   -0.6997    2.1989 O   0  0  0  0  0  0
   -1.7345    1.5340   -3.9491 N   0  0  0  0  0  0
   -3.7403    1.3943   -5.0482 O   0  0  0  0  0  0
   -5.8837   -0.1362   -3.2945 C   0  0  2  0  0  0
   -6.9801   -1.2097   -3.1294 C   0  0  0  0  0  0
    2.1549    1.3822   -0.6043 N   0  3  1  0  0  0
    2.4740   -0.7901    0.0489 O   0  5  0  0  0  0
    3.8533    2.3842    1.0223 C   0  0  1  0  0  0
   -5.3081   -3.0490   -3.5977 C   0  0  0  0  0  0
    3.7373    3.3443    2.5622 S   0  0  0  0  0  0
    5.0980    4.4636    2.1515 C   0  0  0  0  0  0
   -4.1494   -1.7365   -4.8403 H   0  0  0  0  0  0
   -3.2521   -2.4439   -3.5236 H   0  0  0  0  0  0
    0.2230   -2.1003    0.8672 H   0  0  0  0  0  0
   -2.1873   -2.3805    1.1695 H   0  0  0  0  0  0
   -2.4965   -0.7331    0.7114 H   0  0  0  0  0  0
   -0.3869    0.7550   -0.0006 H   0  0  0  0  0  0
   -2.7536    0.5918   -1.0693 H   0  0  0  0  0  0
   -2.4244   -0.2283   -4.8590 H   0  0  0  0  0  0
   -4.5693   -1.0079   -1.8863 H   0  0  0  0  0  0
   -7.4574   -3.2183   -3.7843 H   0  0  0  0  0  0
   -6.7142   -2.2286   -5.0183 H   0  0  0  0  0  0
   -6.2244    0.8681   -1.3828 H   0  0  0  0  0  0
   -7.2296    1.4744   -2.6951 H   0  0  0  0  0  0
   -5.5352    1.9191   -2.6180 H   0  0  0  0  0  0
    1.5924    0.6387    1.2575 H   0  0  0  0  0  0
    2.6927    3.4316   -0.5049 H   0  0  0  0  0  0
    1.7365    2.8566    0.8150 H   0  0  0  0  0  0
    4.0462    0.7523   -1.4049 H   0  0  0  0  0  0
    3.2111    1.9792   -2.3584 H   0  0  0  0  0  0
    2.6625    0.3139   -2.3976 H   0  0  0  0  0  0
    6.3541    4.6648    0.3806 H   0  0  0  0  0  0
    4.6413    4.9365    0.0995 H   0  0  0  0  0  0
    5.1161    2.6911   -0.7624 H   0  0  0  0  0  0
    5.9844    2.2733    0.6968 H   0  0  0  0  0  0
   -3.0545   -2.2008   -1.1377 H   0  0  0  0  0  0
   -1.4042   -1.3878   -2.9416 H   0  0  0  0  0  0
    0.4483    0.0630   -2.2697 H   0  0  0  0  0  0
    0.6114   -1.5561   -1.7093 H   0  0  0  0  0  0
   -2.0383    2.3614   -2.1788 H   0  0  0  0  0  0
   -1.7243   -3.8821   -0.5675 H   0  0  0  0  0  0
   -0.9661    0.0651    2.2242 H   0  0  0  0  0  0
   -0.8585    1.2247   -4.3652 H   0  0  0  0  0  0
   -3.8908    0.9656   -5.8767 H   0  0  0  0  0  0
   -5.8865    0.1623   -4.3425 H   0  0  0  0  0  0
   -7.9476   -0.8035   -3.4272 H   0  0  0  0  0  0
   -7.0729   -1.4819   -2.0771 H   0  0  0  0  0  0
    3.9529    1.3367    1.3074 H   0  0  0  0  0  0
   -5.0980   -3.9188   -4.2207 H   0  0  0  0  0  0
   -5.3110   -3.3995   -2.5648 H   0  0  0  0  0  0
    5.9790    4.1500    2.7121 H   0  0  0  0  0  0
    4.8662    5.4896    2.4385 H   0  0  0  0  0  0
    1.3060    1.6883   -1.0571 H   0  0  0  0  0  0
  1  7  1  0  0  0
  1 29  1  0  0  0
  1 32  1  0  0  0
  1 33  1  0  0  0
  2  3  1  0  0  0
  2  4  1  0  0  0
  2 21  1  0  0  0
  2 34  1  0  0  0
  3 15  1  0  0  0
  3 35  1  0  0  0
  3 36  1  0  0  0
  4 10  1  0  0  0
  4 17  1  0  0  0
  4 37  1  0  0  0
  5 16  1  0  0  0
  5 18  1  0  0  0
  5 19  1  0  0  0
  5 38  1  0  0  0
  6 19  1  0  0  0
  6 22  1  0  0  0
  6 23  1  0  0  0
  6 39  1  0  0  0
  7 19  1  0  0  0
  7 24  1  0  0  0
  7 40  1  0  0  0
  8 25  1  0  0  0
  8 29  1  0  0  0
  8 41  1  0  0  0
  8 42  1  0  0  0
  9 24  1  0  0  0
  9 43  1  0  0  0
  9 44  1  0  0  0
  9 45  1  0  0  0
 10 26  1  0  0  0
 10 27  1  0  0  0
 10 46  1  0  0  0
 11 26  1  0  0  0
 11 28  1  0  0  0
 11 47  1  0  0  0
 11 48  1  0  0  0
 12 26  1  0  0  0
 12 49  1  0  0  0
 12 50  1  0  0  0
 12 51  1  0  0  0
 13 14  1  0  0  0
 13 31  1  0  0  0
 13 52  1  0  0  0
 13 53  1  0  0  0
 14 28  1  0  0  0
 14 54  1  0  0  0
 14 55  1  0  0  0
 15 16  1  0  0  0
 15 20  1  0  0  0
 15 56  1  0  0  0
 16 17  1  0  0  0
 16 57  1  0  0  0
 17 58  1  0  0  0
 17 59  1  0  0  0
 18 22  1  0  0  0
 18 60  1  0  0  0
 20 61  1  0  0  0
 21 62  1  0  0  0
 22 63  1  0  0  0
 23 64  1  0  0  0
 24 25  1  0  0  0
 24 65  1  0  0  0
 25 66  1  0  0  0
 25 67  1  0  0  0
 26 73  1  0  0  0
 28 30  1  0  0  0
 28 68  1  0  0  0
 29 69  1  0  0  0
 29 70  1  0  0  0
 30 31  1  0  0  0
 31 71  1  0  0  0
 31 72  1  0  0  0
M  CHG  2  26   1  27  -1
M  END
> <entry id>
40

> <entry name>
pdb5j86-lig.1

> <PDB format version>
3.0

> <Source Path>
C:\Users\zzy\Desktop\hsp90-33sys\crystal-ligand

> <Source File>
pdb5j86-lig.pdb

> <Source File Index>
1

> <source file>
ligprep_hsp90-33system.maegz

> <source file index>
7

> <mmshare version>
37011

> <Ionization Penalty>
0.3708

> <Ionization Penalty Charging>
0.1057

> <Ionization Penalty Neutral>
0.2651

> <State Penalty>
0

> <Charging Adjusted Penalty>
0.105712

> <Tot Q>
0

> <Tot abs Q>
2

> <Chemistry Notes>
This compound contains an acetal/aminal-like group ( X-CH(R)-Y where X, Y are N, S, or O) that may be acid/base labile, releasing an aldehyde.

> <i_f3d_flags>
0

> <Force Field>
OPLS_2005

> <Energy>
74.1705

> <Chiralities Consistent>
1

> <Variant>
pdb5j86-lig-1

> <job name>
ligprep_hsp90-33system

> <tautomer probability>
1

> <subgroupid>
ligprep_hsp90-33system-out1

> <subgroup title>
ligprep_hsp90-33system-out1

> <subgroup collapsed>
0

$$$$
