pdb5j64-lig
                    3D
 Structure written by MMmdl.
 47 49  0  0  1  0            999 V2000
    4.1156    1.5589    0.1962 C   0  0  1  0  0  0
    3.4664    0.9452    1.4453 C   0  0  0  0  0  0
    1.9415    0.7611    1.3006 C   0  0  1  0  0  0
    0.0051   -0.1325   -0.1841 C   0  0  1  0  0  0
   -0.4815   -2.2819    0.2841 C   0  0  1  0  0  0
   -2.0575   -0.5601    1.1955 C   0  0  1  0  0  0
   -2.3231   -0.9674    2.6725 C   0  0  2  0  0  0
   -3.7638   -0.6627    3.1139 C   0  0  0  0  0  0
   -2.4208    0.9401    1.0184 C   0  0  0  0  0  0
    1.5521   -0.0530    0.0313 C   0  0  1  0  0  0
    2.2182    0.6011   -1.2062 C   0  0  0  0  0  0
    3.7399    0.7600   -1.0595 C   0  0  0  0  0  0
    3.7287    2.9118    0.0529 O   0  0  0  0  0  0
    1.5140    0.1170    2.4844 O   0  0  0  0  0  0
   -0.3825   -0.7849   -1.4402 N   0  0  0  0  0  0
   -0.6807   -2.1263   -1.1456 N   0  0  0  0  0  0
   -0.6586   -0.9353    0.8597 N   0  0  0  0  0  0
   -4.1081    0.8194    2.9169 C   0  0  0  0  0  0
   -3.8610    1.2443    1.4646 C   0  0  0  0  0  0
   -1.4549   -3.1962    0.7493 O   0  0  0  0  0  0
   -1.4785   -0.3245    3.4826 F   0  0  0  0  0  0
    5.1997    1.5487    0.3149 H   0  0  0  0  0  0
    3.9272   -0.0264    1.6310 H   0  0  0  0  0  0
    3.6914    1.5579    2.3197 H   0  0  0  0  0  0
    1.4628    1.7404    1.2609 H   0  0  0  0  0  0
   -0.3199    0.9031   -0.2178 H   0  0  0  0  0  0
    0.5212   -2.6651    0.4745 H   0  0  0  0  0  0
   -2.7381   -1.1050    0.5400 H   0  0  0  0  0  0
   -2.1284   -2.0246    2.8435 H   0  0  0  0  0  0
   -4.4567   -1.2776    2.5383 H   0  0  0  0  0  0
   -3.9014   -0.9402    4.1593 H   0  0  0  0  0  0
   -1.7235    1.5682    1.5752 H   0  0  0  0  0  0
   -2.3536    1.2315   -0.0296 H   0  0  0  0  0  0
    1.9707   -1.0554    0.1261 H   0  0  0  0  0  0
    2.0269    0.0071   -2.1000 H   0  0  0  0  0  0
    1.7687    1.5778   -1.3903 H   0  0  0  0  0  0
    4.1540    1.2380   -1.9482 H   0  0  0  0  0  0
    4.1971   -0.2288   -1.0056 H   0  0  0  0  0  0
    4.0115    3.3882    0.8185 H   0  0  0  0  0  0
    0.5786   -0.0139    2.4329 H   0  0  0  0  0  0
   -1.2263   -0.3511   -1.8095 H   0  0  0  0  0  0
   -0.0575   -2.7395   -1.6670 H   0  0  0  0  0  0
   -5.1489    0.9994    3.1871 H   0  0  0  0  0  0
   -3.5036    1.4319    3.5869 H   0  0  0  0  0  0
   -4.0669    2.3089    1.3500 H   0  0  0  0  0  0
   -4.5612    0.7234    0.8103 H   0  0  0  0  0  0
   -1.0109   -3.9179    1.1679 H   0  0  0  0  0  0
  1  2  1  0  0  0
  1 12  1  0  0  0
  1 13  1  0  0  0
  1 22  1  0  0  0
  2  3  1  0  0  0
  2 23  1  0  0  0
  2 24  1  0  0  0
  3 10  1  0  0  0
  3 14  1  0  0  0
  3 25  1  0  0  0
  4 10  1  0  0  0
  4 15  1  0  0  0
  4 17  1  0  0  0
  4 26  1  0  0  0
  5 16  1  0  0  0
  5 17  1  0  0  0
  5 20  1  0  0  0
  5 27  1  0  0  0
  6  7  1  0  0  0
  6  9  1  0  0  0
  6 17  1  0  0  0
  6 28  1  0  0  0
  7  8  1  0  0  0
  7 21  1  0  0  0
  7 29  1  0  0  0
  8 18  1  0  0  0
  8 30  1  0  0  0
  8 31  1  0  0  0
  9 19  1  0  0  0
  9 32  1  0  0  0
  9 33  1  0  0  0
 10 11  1  0  0  0
 10 34  1  0  0  0
 11 12  1  0  0  0
 11 35  1  0  0  0
 11 36  1  0  0  0
 12 37  1  0  0  0
 12 38  1  0  0  0
 13 39  1  0  0  0
 14 40  1  0  0  0
 15 16  1  0  0  0
 15 41  1  0  0  0
 16 42  1  0  0  0
 18 19  1  0  0  0
 18 43  1  0  0  0
 18 44  1  0  0  0
 19 45  1  0  0  0
 19 46  1  0  0  0
 20 47  1  0  0  0
M  END
> <entry id>
39

> <entry name>
pdb5j64-lig.1

> <PDB format version>
3.0

> <Source Path>
C:\Users\zzy\Desktop\hsp90-33sys\crystal-ligand

> <Source File>
pdb5j64-lig.pdb

> <Source File Index>
1

> <source file>
ligprep_hsp90-33system.maegz

> <source file index>
6

> <mmshare version>
37011

> <Ionization Penalty>
0.1404

> <Ionization Penalty Charging>
0

> <Ionization Penalty Neutral>
0.1404

> <State Penalty>
0.1295

> <Charging Adjusted Penalty>
0.129519

> <Tot Q>
0

> <Tot abs Q>
0

> <Chemistry Notes>
This compound contains an acetal/aminal-like group ( X-CH(R)-Y where X, Y are N, S, or O) that may be acid/base labile, releasing an aldehyde.

> <i_f3d_flags>
0

> <Force Field>
OPLS_2005

> <Energy>
47.8996

> <Chiralities Consistent>
1

> <Variant>
pdb5j64-lig-1

> <job name>
ligprep_hsp90-33system

> <subgroupid>
ligprep_hsp90-33system-out1

> <subgroup title>
ligprep_hsp90-33system-out1

> <subgroup collapsed>
0

$$$$
