pdb5lrz-lig
                    3D
 Structure written by MMmdl.
 89 95  0  0  1  0            999 V2000
   -0.3229   -2.6356    1.4064 C   0  0  0  0  0  0
   -1.5618   -1.7877    1.0711 C   0  0  1  0  0  0
   -1.3037   -0.3007    1.4137 C   0  0  2  0  0  0
   -0.6857    0.3524    0.1465 C   0  0  2  0  0  0
   -1.9949   -1.6373   -0.4073 C   0  0  1  0  0  0
   -1.1311   -0.5460   -1.0370 C   0  0  1  0  0  0
   -1.9542    0.1754   -2.1254 C   0  0  0  0  0  0
   -2.6037   -0.8156   -3.1187 C   0  0  0  0  0  0
   -3.3506   -1.9757   -2.4116 C   0  0  0  0  0  0
   -2.4350   -2.7567   -1.4138 C   0  0  1  0  0  0
   -1.3440   -3.5773   -2.2166 C   0  0  1  0  0  0
   -0.6353   -0.0348    2.7846 C   0  0  0  0  0  0
    0.1351   -2.4416    2.8572 C   0  0  0  0  0  0
    0.5306   -0.9830    3.1070 C   0  0  0  0  0  0
    0.7906    0.4650    0.2372 N   0  3  0  0  0  0
    3.6360    1.2971    0.7462 C   0  0  1  0  0  0
    4.6218    2.2569    1.4577 C   0  0  0  0  0  0
    4.7737    3.5527    0.7934 N   0  0  0  0  0  0
    2.6608    2.0689   -0.1840 C   0  0  1  0  0  0
    3.4981    2.8582   -1.2224 C   0  0  2  0  0  0
    4.8135    3.4361   -0.6599 C   0  0  1  0  0  0
    4.9291    4.7864   -1.2409 N   0  3  0  0  0  0
    3.8191    4.9815   -2.1938 C   0  0  0  0  0  0
    2.7866    4.0194   -1.7748 N   0  3  0  0  0  0
    1.4672    1.2791   -0.7983 C   0  0  1  0  0  0
    1.9083    0.4058   -1.6639 O   0  5  0  0  0  0
   -0.3486   -4.4328   -1.4076 C   0  0  0  0  0  0
   -2.6630   -5.6708   -2.5985 N   0  3  0  0  0  0
   -1.9500   -4.5548   -3.2615 C   0  0  0  0  0  0
   -1.7716   -6.4901   -1.7471 C   0  0  1  0  0  0
   -1.0541   -5.6065   -0.7011 C   0  0  1  0  0  0
   -0.0875   -6.4634    0.1374 C   0  0  0  0  0  0
   -0.8337   -7.6189    0.8264 C   0  0  0  0  0  0
   -1.6023   -8.4809   -0.1900 C   0  0  0  0  0  0
   -2.5439   -7.6281   -1.0580 C   0  0  0  0  0  0
    4.7205   -0.0404   -0.2673 Br  0  0  0  0  0  0
   -0.5539   -3.6882    1.2690 H   0  0  0  0  0  0
    0.5064   -2.3694    0.7520 H   0  0  0  0  0  0
   -2.3961   -2.1641    1.6657 H   0  0  0  0  0  0
   -2.2894    0.1613    1.5028 H   0  0  0  0  0  0
   -1.0950    1.3592    0.0518 H   0  0  0  0  0  0
   -2.9485   -1.1417   -0.2105 H   0  0  0  0  0  0
   -0.2659   -1.0244   -1.4934 H   0  0  0  0  0  0
   -2.7424    0.7642   -1.6538 H   0  0  0  0  0  0
   -1.3246    0.8852   -2.6625 H   0  0  0  0  0  0
   -3.2990   -0.2748   -3.7612 H   0  0  0  0  0  0
   -1.8407   -1.2137   -3.7869 H   0  0  0  0  0  0
   -4.2061   -1.5576   -1.8789 H   0  0  0  0  0  0
   -3.8236   -2.6227   -3.1449 H   0  0  0  0  0  0
   -3.0676   -3.4585   -0.8706 H   0  0  0  0  0  0
   -0.7356   -2.8656   -2.7725 H   0  0  0  0  0  0
   -0.3142    1.0047    2.8589 H   0  0  0  0  0  0
   -1.3916   -0.1666    3.5595 H   0  0  0  0  0  0
   -0.6613   -2.7360    3.5420 H   0  0  0  0  0  0
    0.9831   -3.0943    3.0674 H   0  0  0  0  0  0
    1.4060   -0.7369    2.5077 H   0  0  0  0  0  0
    0.8333   -0.8536    4.1466 H   0  0  0  0  0  0
    0.9879    0.8971    1.1277 H   0  0  0  0  0  0
    3.0947    0.7330    1.5048 H   0  0  0  0  0  0
    4.2658    2.4625    2.4676 H   0  0  0  0  0  0
    5.5972    1.7822    1.5696 H   0  0  0  0  0  0
    5.6021    4.0133    1.1452 H   0  0  0  0  0  0
    2.1899    2.8064    0.4700 H   0  0  0  0  0  0
    3.7634    2.2181   -2.0651 H   0  0  0  0  0  0
    5.6689    2.8277   -0.9570 H   0  0  0  0  0  0
    4.8399    5.4629   -0.4961 H   0  0  0  0  0  0
    3.4511    6.0076   -2.1928 H   0  0  0  0  0  0
    4.1600    4.7306   -3.1990 H   0  0  0  0  0  0
    2.1844    3.7540   -2.5418 H   0  0  0  0  0  0
    0.7574    2.0496   -1.1026 H   0  0  0  0  0  0
    0.3927   -4.8455   -2.0938 H   0  0  0  0  0  0
    0.2475   -3.8280   -0.7425 H   0  0  0  0  0  0
   -3.4020   -5.2886   -2.0260 H   0  0  0  0  0  0
   -2.6057   -4.0704   -3.9798 H   0  0  0  0  0  0
   -1.1521   -4.9786   -3.8736 H   0  0  0  0  0  0
   -1.0234   -6.9377   -2.4041 H   0  0  0  0  0  0
   -1.8027   -5.1987   -0.0208 H   0  0  0  0  0  0
    0.7015   -6.8649   -0.5000 H   0  0  0  0  0  0
    0.4087   -5.8487    0.8887 H   0  0  0  0  0  0
   -0.1280   -8.2389    1.3803 H   0  0  0  0  0  0
   -1.5307   -7.2149    1.5617 H   0  0  0  0  0  0
   -0.8923   -9.0055   -0.8307 H   0  0  0  0  0  0
   -2.1719   -9.2507    0.3314 H   0  0  0  0  0  0
   -3.3397   -7.2148   -0.4364 H   0  0  0  0  0  0
   -3.0281   -8.2599   -1.8035 H   0  0  0  0  0  0
   -3.0704   -6.2645   -3.3065 H   0  0  0  0  0  0
    2.2395    4.4388   -1.0367 H   0  0  0  0  0  0
    1.1987   -0.4590    0.2382 H   0  0  0  0  0  0
    5.8200    4.9084   -1.7021 H   0  0  0  0  0  0
  1  2  1  0  0  0
  1 13  1  0  0  0
  1 37  1  0  0  0
  1 38  1  0  0  0
  2  3  1  0  0  0
  2  5  1  0  0  0
  2 39  1  0  0  0
  3  4  1  0  0  0
  3 12  1  0  0  0
  3 40  1  0  0  0
  4  6  1  0  0  0
  4 15  1  0  0  0
  4 41  1  0  0  0
  5  6  1  0  0  0
  5 10  1  0  0  0
  5 42  1  0  0  0
  6  7  1  0  0  0
  6 43  1  0  0  0
  7  8  1  0  0  0
  7 44  1  0  0  0
  7 45  1  0  0  0
  8  9  1  0  0  0
  8 46  1  0  0  0
  8 47  1  0  0  0
  9 10  1  0  0  0
  9 48  1  0  0  0
  9 49  1  0  0  0
 10 11  1  0  0  0
 10 50  1  0  0  0
 11 27  1  0  0  0
 11 29  1  0  0  0
 11 51  1  0  0  0
 12 14  1  0  0  0
 12 52  1  0  0  0
 12 53  1  0  0  0
 13 14  1  0  0  0
 13 54  1  0  0  0
 13 55  1  0  0  0
 14 56  1  0  0  0
 14 57  1  0  0  0
 15 25  1  0  0  0
 15 58  1  0  0  0
 15 88  1  0  0  0
 16 17  1  0  0  0
 16 19  1  0  0  0
 16 36  1  0  0  0
 16 59  1  0  0  0
 17 18  1  0  0  0
 17 60  1  0  0  0
 17 61  1  0  0  0
 18 21  1  0  0  0
 18 62  1  0  0  0
 19 20  1  0  0  0
 19 25  1  0  0  0
 19 63  1  0  0  0
 20 21  1  0  0  0
 20 24  1  0  0  0
 20 64  1  0  0  0
 21 22  1  0  0  0
 21 65  1  0  0  0
 22 23  1  0  0  0
 22 66  1  0  0  0
 22 89  1  0  0  0
 23 24  1  0  0  0
 23 67  1  0  0  0
 23 68  1  0  0  0
 24 69  1  0  0  0
 24 87  1  0  0  0
 25 26  1  0  0  0
 25 70  1  0  0  0
 27 31  1  0  0  0
 27 71  1  0  0  0
 27 72  1  0  0  0
 28 29  1  0  0  0
 28 30  1  0  0  0
 28 73  1  0  0  0
 28 86  1  0  0  0
 29 74  1  0  0  0
 29 75  1  0  0  0
 30 31  1  0  0  0
 30 35  1  0  0  0
 30 76  1  0  0  0
 31 32  1  0  0  0
 31 77  1  0  0  0
 32 33  1  0  0  0
 32 78  1  0  0  0
 32 79  1  0  0  0
 33 34  1  0  0  0
 33 80  1  0  0  0
 33 81  1  0  0  0
 34 35  1  0  0  0
 34 82  1  0  0  0
 34 83  1  0  0  0
 35 84  1  0  0  0
 35 85  1  0  0  0
M  CHG  5  15   1  22   1  24   1  26  -1  28   1
M  END
> <entry id>
47

> <entry name>
pdb5lrz-lig.1

> <PDB format version>
3.0

> <Source Path>
C:\Users\zzy\Desktop\hsp90-33sys\crystal-ligand

> <Source File>
pdb5lrz-lig.pdb

> <Source File Index>
1

> <source file>
ligprep_hsp90-33system.maegz

> <source file index>
14

> <mmshare version>
37011

> <Ionization Penalty>
0.216

> <Ionization Penalty Charging>
0.216

> <Ionization Penalty Neutral>
0

> <State Penalty>
0.1968

> <Charging Adjusted Penalty>
0.412776

> <Tot Q>
3

> <Tot abs Q>
5

> <Chemistry Notes>
This compound contains an acetal/aminal-like group ( X-CH(R)-Y where X, Y are N, S, or O) that may be acid/base labile, releasing an aldehyde.

> <i_f3d_flags>
0

> <Force Field>
OPLS_2005

> <Energy>
128.081

> <Chiralities Consistent>
1

> <Variant>
pdb5lrz-lig-1

> <job name>
ligprep_hsp90-33system

> <subgroupid>
ligprep_hsp90-33system-out1

> <subgroup title>
ligprep_hsp90-33system-out1

> <subgroup collapsed>
0

$$$$
