pdb5ls1-lig
                    3D
 Structure written by MMmdl.
 77 80  0  0  1  0            999 V2000
    4.3148    1.9547    1.6302 C   0  0  1  0  0  0
    3.4723    0.9994    0.7567 C   0  0  1  0  0  0
    2.0350    0.7822    1.2499 C   0  0  1  0  0  0
    1.9909    0.6744   -1.1275 C   0  0  0  0  0  0
    3.2686    1.4229   -0.7049 C   0  0  2  0  0  0
    2.1349    2.3501    4.0126 C   0  0  0  0  0  0
    1.4261    4.3629    2.7354 C   0  0  0  0  0  0
    4.4696    1.1398   -1.6193 C   0  0  0  0  0  0
   -0.0820   -0.0920    0.1074 C   0  0  1  0  0  0
   -0.5932   -0.7651    1.4017 C   0  0  0  0  0  0
    3.5584    3.2284    2.0632 C   0  0  0  0  0  0
    2.1259    2.9947    2.6086 C   0  0  0  0  0  0
    1.3346    2.1228    1.6085 C   0  0  0  0  0  0
    1.4032    0.0831    0.1019 N   0  3  2  0  0  0
    4.7899    1.2538    2.7612 O   0  0  0  0  0  0
   -0.2170   -2.2521    1.4711 C   0  0  0  0  0  0
   -0.7920   -3.0313    0.2645 C   0  0  1  0  0  0
   -0.3301   -2.4116   -1.0837 C   0  0  1  0  0  0
   -0.6044   -0.8861   -1.1217 C   0  0  0  0  0  0
   -0.6103   -4.5750    0.3371 C   0  0  2  0  0  0
    1.0957   -2.7138   -1.3775 N   0  3  0  0  0  0
    1.4372   -3.2139   -2.7338 C   0  0  1  0  0  0
    0.9181   -4.6468   -2.9806 C   0  0  0  0  0  0
    1.3626   -5.1679   -4.3568 C   0  0  0  0  0  0
    0.9229   -4.2133   -5.4808 C   0  0  1  0  0  0
    1.4561   -2.7900   -5.2394 C   0  0  0  0  0  0
    1.0137   -2.2550   -3.8680 C   0  0  0  0  0  0
    1.4053   -4.6879   -6.7193 O   0  0  0  0  0  0
   -1.3215   -5.1447    1.4921 N   0  3  0  0  0  0
    0.6430   -4.8692    0.5687 O   0  5  0  0  0  0
    5.2058    2.2513    1.0763 H   0  0  0  0  0  0
    3.9707    0.0274    0.7397 H   0  0  0  0  0  0
    2.0414    0.1221    2.1172 H   0  0  0  0  0  0
    1.2960    1.3676   -1.6042 H   0  0  0  0  0  0
    2.2093   -0.1209   -1.8387 H   0  0  0  0  0  0
    3.0603    2.4929   -0.7384 H   0  0  0  0  0  0
    2.5445    1.3418    4.0136 H   0  0  0  0  0  0
    1.1252    2.2772    4.4182 H   0  0  0  0  0  0
    2.7243    2.9413    4.7143 H   0  0  0  0  0  0
    1.3728    4.8790    1.7759 H   0  0  0  0  0  0
    1.9572    5.0175    3.4278 H   0  0  0  0  0  0
    0.4052    4.2567    3.1043 H   0  0  0  0  0  0
    4.7264    0.0800   -1.6251 H   0  0  0  0  0  0
    5.3509    1.6941   -1.2965 H   0  0  0  0  0  0
    4.2543    1.4347   -2.6467 H   0  0  0  0  0  0
   -0.5196    0.9052    0.0495 H   0  0  0  0  0  0
   -0.2387   -0.2543    2.2956 H   0  0  0  0  0  0
   -1.6798   -0.6769    1.4375 H   0  0  0  0  0  0
    4.1533    3.7860    2.7883 H   0  0  0  0  0  0
    3.4910    3.8789    1.1900 H   0  0  0  0  0  0
    1.1696    2.7004    0.6981 H   0  0  0  0  0  0
    0.3408    1.9368    2.0147 H   0  0  0  0  0  0
    5.3549    1.8272    3.2570 H   0  0  0  0  0  0
    0.8679   -2.3545    1.5150 H   0  0  0  0  0  0
   -0.5990   -2.6678    2.4038 H   0  0  0  0  0  0
   -1.8713   -2.8693    0.2967 H   0  0  0  0  0  0
   -0.9440   -2.8679   -1.8596 H   0  0  0  0  0  0
   -1.6868   -0.7539   -1.1543 H   0  0  0  0  0  0
   -0.2508   -0.4514   -2.0556 H   0  0  0  0  0  0
   -1.1354   -4.9866   -0.5256 H   0  0  0  0  0  0
    1.6464   -1.8902   -1.1891 H   0  0  0  0  0  0
    2.5269   -3.2656   -2.7430 H   0  0  0  0  0  0
    1.2865   -5.3174   -2.2036 H   0  0  0  0  0  0
   -0.1699   -4.6802   -2.9265 H   0  0  0  0  0  0
    2.4482   -5.2786   -4.3677 H   0  0  0  0  0  0
    0.9494   -6.1631   -4.5248 H   0  0  0  0  0  0
   -0.1664   -4.1885   -5.5317 H   0  0  0  0  0  0
    2.5461   -2.7883   -5.2945 H   0  0  0  0  0  0
    1.1061   -2.1205   -6.0262 H   0  0  0  0  0  0
   -0.0685   -2.1247   -3.8773 H   0  0  0  0  0  0
    1.4464   -1.2671   -3.7123 H   0  0  0  0  0  0
    1.0407   -5.5454   -6.8785 H   0  0  0  0  0  0
   -2.3074   -4.9364    1.4282 H   0  0  0  0  0  0
   -0.9430   -4.7522    2.3420 H   0  0  0  0  0  0
    1.7871   -0.8491    0.1512 H   0  0  0  0  0  0
    1.3791   -3.4369   -0.7275 H   0  0  0  0  0  0
   -1.1866   -6.1455    1.5001 H   0  0  0  0  0  0
  1  2  1  0  0  0
  1 11  1  0  0  0
  1 15  1  0  0  0
  1 31  1  0  0  0
  2  3  1  0  0  0
  2  5  1  0  0  0
  2 32  1  0  0  0
  3 13  1  0  0  0
  3 14  1  0  0  0
  3 33  1  0  0  0
  4  5  1  0  0  0
  4 14  1  0  0  0
  4 34  1  0  0  0
  4 35  1  0  0  0
  5  8  1  0  0  0
  5 36  1  0  0  0
  6 12  1  0  0  0
  6 37  1  0  0  0
  6 38  1  0  0  0
  6 39  1  0  0  0
  7 12  1  0  0  0
  7 40  1  0  0  0
  7 41  1  0  0  0
  7 42  1  0  0  0
  8 43  1  0  0  0
  8 44  1  0  0  0
  8 45  1  0  0  0
  9 10  1  0  0  0
  9 14  1  0  0  0
  9 19  1  0  0  0
  9 46  1  0  0  0
 10 16  1  0  0  0
 10 47  1  0  0  0
 10 48  1  0  0  0
 11 12  1  0  0  0
 11 49  1  0  0  0
 11 50  1  0  0  0
 12 13  1  0  0  0
 13 51  1  0  0  0
 13 52  1  0  0  0
 14 75  1  0  0  0
 15 53  1  0  0  0
 16 17  1  0  0  0
 16 54  1  0  0  0
 16 55  1  0  0  0
 17 18  1  0  0  0
 17 20  1  0  0  0
 17 56  1  0  0  0
 18 19  1  0  0  0
 18 21  1  0  0  0
 18 57  1  0  0  0
 19 58  1  0  0  0
 19 59  1  0  0  0
 20 29  1  0  0  0
 20 30  1  0  0  0
 20 60  1  0  0  0
 21 22  1  0  0  0
 21 61  1  0  0  0
 21 76  1  0  0  0
 22 23  1  0  0  0
 22 27  1  0  0  0
 22 62  1  0  0  0
 23 24  1  0  0  0
 23 63  1  0  0  0
 23 64  1  0  0  0
 24 25  1  0  0  0
 24 65  1  0  0  0
 24 66  1  0  0  0
 25 26  1  0  0  0
 25 28  1  0  0  0
 25 67  1  0  0  0
 26 27  1  0  0  0
 26 68  1  0  0  0
 26 69  1  0  0  0
 27 70  1  0  0  0
 27 71  1  0  0  0
 28 72  1  0  0  0
 29 73  1  0  0  0
 29 74  1  0  0  0
 29 77  1  0  0  0
M  CHG  4  14   1  21   1  29   1  30  -1
M  END
> <entry id>
48

> <entry name>
pdb5ls1-lig.1

> <PDB format version>
3.0

> <Source Path>
C:\Users\zzy\Desktop\hsp90-33sys\crystal-ligand

> <Source File>
pdb5ls1-lig.pdb

> <Source File Index>
1

> <source file>
ligprep_hsp90-33system.maegz

> <source file index>
15

> <mmshare version>
37011

> <Ionization Penalty>
0.1149

> <Ionization Penalty Charging>
0.1149

> <Ionization Penalty Neutral>
0

> <State Penalty>
0.2542

> <Charging Adjusted Penalty>
0.369072

> <Tot Q>
2

> <Tot abs Q>
4

> <Chemistry Notes>
This compound contains an acetal/aminal-like group ( X-CH(R)-Y where X, Y are N, S, or O) that may be acid/base labile, releasing an aldehyde.

> <i_f3d_flags>
0

> <Force Field>
OPLS_2005

> <Energy>
78.3285

> <Chiralities Consistent>
1

> <Variant>
pdb5ls1-lig-1

> <job name>
ligprep_hsp90-33system

> <subgroupid>
ligprep_hsp90-33system-out1

> <subgroup title>
ligprep_hsp90-33system-out1

> <subgroup collapsed>
0

$$$$
