pdb5lr7-lig
                    3D
 Structure written by MMmdl.
 87 93  0  0  1  0            999 V2000
   -0.7466   -1.1663    1.1838 C   0  0  2  0  0  0
   -4.5726   -0.8533    1.0140 C   0  0  0  0  0  0
   -3.1840   -0.2719    0.7285 C   0  0  0  0  0  0
   -2.2578   -1.1937    1.5252 C   0  0  1  0  0  0
   -2.9295   -2.5715    1.3545 C   0  0  2  0  0  0
   -0.1561    0.2618    1.1490 C   0  0  2  0  0  0
   -2.5599   -3.2230    0.0991 N   0  0  0  0  0  0
    1.7721    0.7758   -1.8217 C   0  0  0  0  0  0
    3.2844    2.0488   -3.3601 C   0  0  0  0  0  0
    2.0019    1.2196   -3.2678 C   0  0  0  0  0  0
   -0.4949   -1.9407   -0.1216 C   0  0  0  0  0  0
   -1.1167   -3.3420   -0.0438 C   0  0  0  0  0  0
   -4.3780   -2.2912    1.2997 N   0  3  0  0  0  0
    1.3196    0.2522    1.0223 N   0  3  0  0  0  0
   -0.3037    0.8877    2.4083 O   0  0  0  0  0  0
    3.1476    3.3206   -2.5191 C   0  0  0  0  0  0
    2.7720    3.0504   -1.0444 C   0  0  1  0  0  0
    1.6916    1.9622   -0.8200 C   0  0  2  0  0  0
    1.9504    1.5412    0.6429 C   0  0  2  0  0  0
    3.9552    2.7434   -0.0813 C   0  0  2  0  0  0
    3.4841    1.4945    0.7111 C   0  0  1  0  0  0
    4.1141    1.2866    2.1046 C   0  0  0  0  0  0
    4.2888    2.5776    2.9012 C   0  0  0  0  0  0
    5.0808    3.5940    2.0780 C   0  0  0  0  0  0
    4.2988    3.9830    0.8084 C   0  0  1  0  0  0
    4.9904    5.1153    0.0052 C   0  0  2  0  0  0
    6.3439    4.7418   -0.4873 N   0  3  0  0  0  0
    5.1722    6.3680    0.7909 N   0  3  0  0  0  0
    6.6220    6.5829    0.8889 C   0  0  1  0  0  0
    7.1433    5.9658   -0.3882 C   0  0  1  0  0  0
    8.6653    5.8135   -0.3224 C   0  0  0  0  0  0
    9.2841    7.2199   -0.1395 C   0  0  0  0  0  0
    8.6678    8.0114    1.0445 C   0  0  1  0  0  0
    7.1193    8.0258    1.0269 C   0  0  0  0  0  0
    9.0813    7.4624    2.1874 F   0  0  0  0  0  0
   -0.2364   -1.7159    1.9772 H   0  0  0  0  0  0
   -5.0050   -0.3840    1.8983 H   0  0  0  0  0  0
   -5.2616   -0.7035    0.1824 H   0  0  0  0  0  0
   -2.9672   -0.3365   -0.3386 H   0  0  0  0  0  0
   -3.1035    0.7743    1.0248 H   0  0  0  0  0  0
   -2.3628   -0.9121    2.5747 H   0  0  0  0  0  0
   -2.6965   -3.2365    2.1871 H   0  0  0  0  0  0
   -0.6124    0.8622    0.3615 H   0  0  0  0  0  0
   -2.9783   -4.1424    0.0568 H   0  0  0  0  0  0
    0.8526    0.1930   -1.7718 H   0  0  0  0  0  0
    2.5714    0.0852   -1.5575 H   0  0  0  0  0  0
    4.1379    1.4613   -3.0193 H   0  0  0  0  0  0
    3.4817    2.3127   -4.3995 H   0  0  0  0  0  0
    2.0775    0.3449   -3.9147 H   0  0  0  0  0  0
    1.1495    1.7989   -3.6254 H   0  0  0  0  0  0
   -0.9026   -1.3980   -0.9756 H   0  0  0  0  0  0
    0.5760   -2.0372   -0.3024 H   0  0  0  0  0  0
   -0.7021   -3.9130    0.7882 H   0  0  0  0  0  0
   -0.8998   -3.8979   -0.9566 H   0  0  0  0  0  0
   -4.7990   -2.5029    2.1934 H   0  0  0  0  0  0
    1.7031   -0.0501    1.9065 H   0  0  0  0  0  0
   -1.0379    1.4824    2.3683 H   0  0  0  0  0  0
    4.0651    3.9046   -2.5846 H   0  0  0  0  0  0
    2.3694    3.9400   -2.9673 H   0  0  0  0  0  0
    2.3096    3.9763   -0.7001 H   0  0  0  0  0  0
    0.7037    2.4146   -0.9189 H   0  0  0  0  0  0
    1.5999    2.3271    1.3140 H   0  0  0  0  0  0
    4.8418    2.4529   -0.6462 H   0  0  0  0  0  0
    3.7993    0.6228    0.1374 H   0  0  0  0  0  0
    3.5371    0.5645    2.6829 H   0  0  0  0  0  0
    5.0993    0.8366    1.9731 H   0  0  0  0  0  0
    3.3163    2.9864    3.1784 H   0  0  0  0  0  0
    4.8134    2.3652    3.8335 H   0  0  0  0  0  0
    5.2640    4.4710    2.6987 H   0  0  0  0  0  0
    6.0589    3.1854    1.8204 H   0  0  0  0  0  0
    3.3561    4.3941    1.1738 H   0  0  0  0  0  0
    4.3803    5.3930   -0.8537 H   0  0  0  0  0  0
    6.7375    4.0519    0.1371 H   0  0  0  0  0  0
    4.7593    7.1351    0.2788 H   0  0  0  0  0  0
    6.9678    6.0003    1.7453 H   0  0  0  0  0  0
    6.8792    6.5940   -1.2420 H   0  0  0  0  0  0
    8.9498    5.1658    0.5080 H   0  0  0  0  0  0
    9.0453    5.3487   -1.2329 H   0  0  0  0  0  0
   10.3639    7.1373   -0.0106 H   0  0  0  0  0  0
    9.1341    7.7912   -1.0566 H   0  0  0  0  0  0
    9.0517    9.0322    1.0517 H   0  0  0  0  0  0
    6.7619    8.6311    0.1926 H   0  0  0  0  0  0
    6.7325    8.4829    1.9384 H   0  0  0  0  0  0
   -4.8095   -2.8551    0.5815 H   0  0  0  0  0  0
    4.7520    6.3010    1.7075 H   0  0  0  0  0  0
    6.3193    4.3800   -1.4306 H   0  0  0  0  0  0
    1.5708   -0.4271    0.3183 H   0  0  0  0  0  0
  1  4  1  0  0  0
  1  6  1  0  0  0
  1 11  1  0  0  0
  1 36  1  0  0  0
  2  3  1  0  0  0
  2 13  1  0  0  0
  2 37  1  0  0  0
  2 38  1  0  0  0
  3  4  1  0  0  0
  3 39  1  0  0  0
  3 40  1  0  0  0
  4  5  1  0  0  0
  4 41  1  0  0  0
  5  7  1  0  0  0
  5 13  1  0  0  0
  5 42  1  0  0  0
  6 14  1  0  0  0
  6 15  1  0  0  0
  6 43  1  0  0  0
  7 12  1  0  0  0
  7 44  1  0  0  0
  8 10  1  0  0  0
  8 18  1  0  0  0
  8 45  1  0  0  0
  8 46  1  0  0  0
  9 10  1  0  0  0
  9 16  1  0  0  0
  9 47  1  0  0  0
  9 48  1  0  0  0
 10 49  1  0  0  0
 10 50  1  0  0  0
 11 12  1  0  0  0
 11 51  1  0  0  0
 11 52  1  0  0  0
 12 53  1  0  0  0
 12 54  1  0  0  0
 13 55  1  0  0  0
 13 84  1  0  0  0
 14 19  1  0  0  0
 14 56  1  0  0  0
 14 87  1  0  0  0
 15 57  1  0  0  0
 16 17  1  0  0  0
 16 58  1  0  0  0
 16 59  1  0  0  0
 17 18  1  0  0  0
 17 20  1  0  0  0
 17 60  1  0  0  0
 18 19  1  0  0  0
 18 61  1  0  0  0
 19 21  1  0  0  0
 19 62  1  0  0  0
 20 21  1  0  0  0
 20 25  1  0  0  0
 20 63  1  0  0  0
 21 22  1  0  0  0
 21 64  1  0  0  0
 22 23  1  0  0  0
 22 65  1  0  0  0
 22 66  1  0  0  0
 23 24  1  0  0  0
 23 67  1  0  0  0
 23 68  1  0  0  0
 24 25  1  0  0  0
 24 69  1  0  0  0
 24 70  1  0  0  0
 25 26  1  0  0  0
 25 71  1  0  0  0
 26 27  1  0  0  0
 26 28  1  0  0  0
 26 72  1  0  0  0
 27 30  1  0  0  0
 27 73  1  0  0  0
 27 86  1  0  0  0
 28 29  1  0  0  0
 28 74  1  0  0  0
 28 85  1  0  0  0
 29 30  1  0  0  0
 29 34  1  0  0  0
 29 75  1  0  0  0
 30 31  1  0  0  0
 30 76  1  0  0  0
 31 32  1  0  0  0
 31 77  1  0  0  0
 31 78  1  0  0  0
 32 33  1  0  0  0
 32 79  1  0  0  0
 32 80  1  0  0  0
 33 34  1  0  0  0
 33 35  1  0  0  0
 33 81  1  0  0  0
 34 82  1  0  0  0
 34 83  1  0  0  0
M  CHG  4  13   1  14   1  27   1  28   1
M  END
> <entry id>
46

> <entry name>
pdb5lr7-lig.1

> <PDB format version>
3.0

> <Source Path>
C:\Users\zzy\Desktop\hsp90-33sys\crystal-ligand

> <Source File>
pdb5lr7-lig.pdb

> <Source File Index>
1

> <source file>
ligprep_hsp90-33system.maegz

> <source file index>
13

> <mmshare version>
37011

> <Ionization Penalty>
0.1564

> <Ionization Penalty Charging>
0.0353

> <Ionization Penalty Neutral>
0.1211

> <State Penalty>
0.1106

> <Charging Adjusted Penalty>
0.145871

> <Tot Q>
4

> <Tot abs Q>
4

> <Chemistry Notes>
This compound contains an acetal/aminal-like group ( X-CH(R)-Y where X, Y are N, S, or O) that may be acid/base labile, releasing an aldehyde.

> <i_f3d_flags>
0

> <Force Field>
OPLS_2005

> <Energy>
142.566

> <Chiralities Consistent>
1

> <Variant>
pdb5lr7-lig-1

> <job name>
ligprep_hsp90-33system

> <subgroupid>
ligprep_hsp90-33system-out1

> <subgroup title>
ligprep_hsp90-33system-out1

> <subgroup collapsed>
0

$$$$
