pdb5nyh-lig
                    3D
 Structure written by MMmdl.
 78 82  0  0  1  0            999 V2000
    0.1555    0.1415    0.0155 C   0  0  2  0  0  0
    0.2709    0.2742    2.6664 C   0  0  1  0  0  0
   -2.1435    0.6718    3.2932 C   0  0  1  0  0  0
   -2.5881    0.1218    1.9569 C   0  0  2  0  0  0
   -4.0856   -0.1151    2.2060 C   0  0  1  0  0  0
   -4.4795   -1.5670    2.6210 C   0  0  2  0  0  0
   -6.3629   -3.2383    2.5132 C   0  0  0  0  0  0
   -6.8939   -1.0250    3.2763 C   0  0  0  0  0  0
    2.1623   -0.4792   -1.3706 C   0  0  2  0  0  0
    3.5785   -0.0697   -1.8381 C   0  0  0  0  0  0
    2.6651   -2.8203   -2.2830 C   0  0  0  0  0  0
    2.2361    1.6410    0.0008 C   0  0  0  0  0  0
    5.0797   -5.4808   -4.8566 C   0  0  0  0  0  0
    6.3761   -3.6570   -5.5888 C   0  0  0  0  0  0
    5.8749   -2.8127   -4.4043 C   0  0  0  0  0  0
    1.6515    0.2736   -0.1743 N   0  3  1  0  0  0
   -0.3858    1.3314   -0.0895 O   0  5  0  0  0  0
   -0.1758   -0.5189    1.3927 C   0  0  1  0  0  0
   -1.6509   -1.0089    1.4980 C   0  0  0  0  0  0
   -0.7578    1.3178    3.1716 C   0  0  0  0  0  0
    0.5241   -0.6444    3.7136 O   0  0  0  0  0  0
   -4.4465    0.9421    3.1783 N   0  0  0  0  0  0
   -3.2519    1.5082    3.7294 N   0  0  0  0  0  0
   -5.9435   -1.8148    2.4539 N   0  3  0  0  0  0
   -7.6535   -3.2838    3.3395 C   0  0  0  0  0  0
   -8.1759   -1.8521    3.3006 C   0  0  0  0  0  0
   -4.1858   -1.8143    3.8768 O   0  5  0  0  0  0
    4.0779   -2.4166   -2.7799 C   0  0  2  0  0  0
    4.0519   -0.8895   -3.0484 C   0  0  0  0  0  0
    2.1894   -1.9951   -1.0773 C   0  0  0  0  0  0
    4.5393   -3.2101   -3.9427 N   0  0  0  0  0  0
    4.5679   -4.6513   -3.6660 C   0  0  0  0  0  0
    6.3741   -5.0317   -5.2313 O   0  0  0  0  0  0
   -0.1775   -0.6163   -0.6930 H   0  0  0  0  0  0
    1.2237    0.7683    2.4927 H   0  0  0  0  0  0
   -2.0763   -0.1505    4.0068 H   0  0  0  0  0  0
   -2.5401    0.9262    1.2232 H   0  0  0  0  0  0
   -4.6097    0.0998    1.2739 H   0  0  0  0  0  0
   -4.0624   -2.1937    1.8324 H   0  0  0  0  0  0
   -6.5418   -3.5837    1.4949 H   0  0  0  0  0  0
   -5.6014   -3.8872    2.9486 H   0  0  0  0  0  0
   -6.5303   -0.9024    4.2972 H   0  0  0  0  0  0
   -7.0572   -0.0322    2.8568 H   0  0  0  0  0  0
    1.4851   -0.2813   -2.2037 H   0  0  0  0  0  0
    3.6024    0.9813   -2.1269 H   0  0  0  0  0  0
    4.2934   -0.1925   -1.0231 H   0  0  0  0  0  0
    1.9456   -2.7253   -3.0975 H   0  0  0  0  0  0
    2.6424   -3.8630   -1.9711 H   0  0  0  0  0  0
    2.0340    2.2692   -0.8681 H   0  0  0  0  0  0
    3.3139    1.5969    0.1531 H   0  0  0  0  0  0
    1.8386    2.1510    0.8778 H   0  0  0  0  0  0
    5.1336   -6.5357   -4.5872 H   0  0  0  0  0  0
    4.3980   -5.4017   -5.7049 H   0  0  0  0  0  0
    5.7494   -3.5000   -6.4680 H   0  0  0  0  0  0
    7.3893   -3.3618   -5.8621 H   0  0  0  0  0  0
    6.5877   -2.8850   -3.5814 H   0  0  0  0  0  0
    5.8753   -1.7761   -4.7352 H   0  0  0  0  0  0
    0.4202   -1.4336    1.3854 H   0  0  0  0  0  0
   -1.6938   -1.8245    2.2208 H   0  0  0  0  0  0
   -1.9925   -1.4252    0.5503 H   0  0  0  0  0  0
   -0.4442    1.7263    4.1329 H   0  0  0  0  0  0
   -0.8031    2.1616    2.4827 H   0  0  0  0  0  0
    1.1775   -1.2623    3.4243 H   0  0  0  0  0  0
   -4.9634    1.6840    2.7111 H   0  0  0  0  0  0
   -3.3154    1.5177    4.7454 H   0  0  0  0  0  0
   -8.3739   -4.0084    2.9594 H   0  0  0  0  0  0
   -7.4174   -3.5562    4.3691 H   0  0  0  0  0  0
   -8.8202   -1.6110    4.1465 H   0  0  0  0  0  0
   -8.7439   -1.6883    2.3838 H   0  0  0  0  0  0
    4.7739   -2.5896   -1.9574 H   0  0  0  0  0  0
    3.4124   -0.6770   -3.9064 H   0  0  0  0  0  0
    5.0433   -0.5184   -3.3023 H   0  0  0  0  0  0
    2.8445   -2.1908   -0.2272 H   0  0  0  0  0  0
    1.2054   -2.3594   -0.7846 H   0  0  0  0  0  0
    3.5709   -5.0189   -3.4318 H   0  0  0  0  0  0
    5.1929   -4.8484   -2.7936 H   0  0  0  0  0  0
   -6.1440   -1.5385    1.5038 H   0  0  0  0  0  0
    2.0341   -0.2375    0.6075 H   0  0  0  0  0  0
  1 16  1  0  0  0
  1 17  1  0  0  0
  1 18  1  0  0  0
  1 34  1  0  0  0
  2 18  1  0  0  0
  2 20  1  0  0  0
  2 21  1  0  0  0
  2 35  1  0  0  0
  3  4  1  0  0  0
  3 20  1  0  0  0
  3 23  1  0  0  0
  3 36  1  0  0  0
  4  5  1  0  0  0
  4 19  1  0  0  0
  4 37  1  0  0  0
  5  6  1  0  0  0
  5 22  1  0  0  0
  5 38  1  0  0  0
  6 24  1  0  0  0
  6 27  1  0  0  0
  6 39  1  0  0  0
  7 24  1  0  0  0
  7 25  1  0  0  0
  7 40  1  0  0  0
  7 41  1  0  0  0
  8 24  1  0  0  0
  8 26  1  0  0  0
  8 42  1  0  0  0
  8 43  1  0  0  0
  9 10  1  0  0  0
  9 16  1  0  0  0
  9 30  1  0  0  0
  9 44  1  0  0  0
 10 29  1  0  0  0
 10 45  1  0  0  0
 10 46  1  0  0  0
 11 28  1  0  0  0
 11 30  1  0  0  0
 11 47  1  0  0  0
 11 48  1  0  0  0
 12 16  1  0  0  0
 12 49  1  0  0  0
 12 50  1  0  0  0
 12 51  1  0  0  0
 13 32  1  0  0  0
 13 33  1  0  0  0
 13 52  1  0  0  0
 13 53  1  0  0  0
 14 15  1  0  0  0
 14 33  1  0  0  0
 14 54  1  0  0  0
 14 55  1  0  0  0
 15 31  1  0  0  0
 15 56  1  0  0  0
 15 57  1  0  0  0
 16 78  1  0  0  0
 18 19  1  0  0  0
 18 58  1  0  0  0
 19 59  1  0  0  0
 19 60  1  0  0  0
 20 61  1  0  0  0
 20 62  1  0  0  0
 21 63  1  0  0  0
 22 23  1  0  0  0
 22 64  1  0  0  0
 23 65  1  0  0  0
 24 77  1  0  0  0
 25 26  1  0  0  0
 25 66  1  0  0  0
 25 67  1  0  0  0
 26 68  1  0  0  0
 26 69  1  0  0  0
 28 29  1  0  0  0
 28 31  1  0  0  0
 28 70  1  0  0  0
 29 71  1  0  0  0
 29 72  1  0  0  0
 30 73  1  0  0  0
 30 74  1  0  0  0
 31 32  1  0  0  0
 32 75  1  0  0  0
 32 76  1  0  0  0
M  CHG  4  16   1  17  -1  24   1  27  -1
M  END
> <entry id>
49

> <entry name>
pdb5nyh-lig.1

> <PDB format version>
3.0

> <Source Path>
C:\Users\zzy\Desktop\hsp90-33sys\crystal-ligand

> <Source File>
pdb5nyh-lig.pdb

> <Source File Index>
1

> <source file>
ligprep_hsp90-33system.maegz

> <source file index>
16

> <mmshare version>
37011

> <Ionization Penalty>
0.6459

> <Ionization Penalty Charging>
0.3999

> <Ionization Penalty Neutral>
0.246

> <State Penalty>
0.5365

> <Charging Adjusted Penalty>
0.936418

> <Tot Q>
0

> <Tot abs Q>
4

> <Chemistry Notes>
This compound contains an acetal/aminal-like group ( X-CH(R)-Y where X, Y are N, S, or O) that may be acid/base labile, releasing an aldehyde.

> <i_f3d_flags>
0

> <Force Field>
OPLS_2005

> <Energy>
112.104

> <Chiralities Consistent>
1

> <Variant>
pdb5nyh-lig-1

> <job name>
ligprep_hsp90-33system

> <subgroupid>
ligprep_hsp90-33system-out1

> <subgroup title>
ligprep_hsp90-33system-out1

> <subgroup collapsed>
0

$$$$
