pdb5lq9-lig
                    3D
 Structure written by MMmdl.
 95100  0  0  1  0            999 V2000
    6.5499    1.0739    5.5857 C   0  0  0  0  0  0
    7.1975    2.4416    5.8592 C   0  0  0  0  0  0
    1.8313    3.4457   -0.4721 C   0  0  0  0  0  0
    6.3309    0.8470    4.0806 C   0  0  0  0  0  0
    2.0703    3.9752    0.9633 C   0  0  0  0  0  0
   -0.5167   -2.9335    1.0384 C   0  0  0  0  0  0
    6.3866    3.5854    5.2271 C   0  0  0  0  0  0
    1.1694    2.0524   -0.4935 C   0  0  0  0  0  0
   -0.8062   -1.5066    1.5348 C   0  0  0  0  0  0
    5.2679    1.7975    1.9547 C   0  0  0  0  0  0
   -0.6698   -0.6664   -0.8297 C   0  0  0  0  0  0
    5.1458    4.2559    1.6651 C   0  0  0  0  0  0
    5.5007    1.9877    3.4657 C   0  0  2  0  0  0
    2.0319    1.6788    1.8403 C   0  0  1  0  0  0
    2.8833    2.9845    1.8464 C   0  0  1  0  0  0
    4.3892    2.9295    1.3836 C   0  0  2  0  0  0
   -1.0558   -3.1490   -0.3971 C   0  0  1  0  0  0
    6.1832    3.3510    3.7199 C   0  0  1  0  0  0
    1.8946    1.0735    0.4606 C   0  0  1  0  0  0
   -0.1963   -0.4070    0.6257 C   0  0  2  0  0  0
   -0.4115   -2.1058   -1.3494 C   0  0  2  0  0  0
    2.3341    0.4894    2.7679 C   0  0  1  0  0  0
   -0.9252   -4.6209   -0.8920 C   0  0  2  0  0  0
    3.2153   -1.6622   -2.4440 C   0  0  0  0  0  0
    1.4003   -2.4587   -4.0176 C   0  0  0  0  0  0
    3.9543   -1.0061   -3.6202 C   0  0  0  0  0  0
    2.1390   -1.8093   -5.1997 C   0  0  0  0  0  0
    1.6970   -1.7213   -2.6948 C   0  0  1  0  0  0
    3.6536   -1.7385   -4.9391 C   0  0  1  0  0  0
    1.6352    0.5815    4.1318 C   0  0  0  0  0  0
    5.3931    4.4465    3.1137 N   0  3  0  0  0  0
    1.8536   -0.6864    2.0439 N   0  0  0  0  0  0
    1.2969   -0.2618    0.7287 N   0  3  2  0  0  0
   -1.6070   -4.8130   -2.1819 N   0  3  0  0  0  0
    1.0345   -2.3863   -1.5498 N   0  3  0  0  0  0
   -1.6170   -5.3868   -0.0929 O   0  5  0  0  0  0
    4.2845   -1.0585   -6.0024 O   0  0  0  0  0  0
    7.1749    0.2791    5.9943 H   0  0  0  0  0  0
    5.5934    1.0123    6.1069 H   0  0  0  0  0  0
    7.2889    2.6003    6.9341 H   0  0  0  0  0  0
    8.2121    2.4499    5.4590 H   0  0  0  0  0  0
    1.2040    4.1507   -1.0186 H   0  0  0  0  0  0
    2.7715    3.4104   -1.0215 H   0  0  0  0  0  0
    7.2956    0.7762    3.5762 H   0  0  0  0  0  0
    5.8286   -0.1082    3.9241 H   0  0  0  0  0  0
    2.5333    4.9582    0.9178 H   0  0  0  0  0  0
    1.1006    4.1561    1.4296 H   0  0  0  0  0  0
    0.5524   -3.1427    1.0818 H   0  0  0  0  0  0
   -0.9858   -3.6334    1.7303 H   0  0  0  0  0  0
    5.4191    3.6642    5.7252 H   0  0  0  0  0  0
    6.8995    4.5333    5.3937 H   0  0  0  0  0  0
    0.1243    2.1798   -0.2152 H   0  0  0  0  0  0
    1.1883    1.6738   -1.5147 H   0  0  0  0  0  0
   -1.8890   -1.3727    1.5508 H   0  0  0  0  0  0
   -0.5090   -1.3948    2.5775 H   0  0  0  0  0  0
    6.2370    1.8232    1.4537 H   0  0  0  0  0  0
    4.8752    0.8173    1.6986 H   0  0  0  0  0  0
   -1.7479   -0.5020   -0.8539 H   0  0  0  0  0  0
   -0.2794    0.0702   -1.5237 H   0  0  0  0  0  0
    6.1096    4.2462    1.1538 H   0  0  0  0  0  0
    4.6235    5.1274    1.2773 H   0  0  0  0  0  0
    4.5337    1.9946    3.9697 H   0  0  0  0  0  0
    1.0238    1.9870    2.1272 H   0  0  0  0  0  0
    2.8644    3.3625    2.8688 H   0  0  0  0  0  0
    4.4003    2.7810    0.3054 H   0  0  0  0  0  0
   -2.1241   -2.9214   -0.3641 H   0  0  0  0  0  0
    7.1629    3.3527    3.2386 H   0  0  0  0  0  0
    2.8922    0.8825    0.0628 H   0  0  0  0  0  0
   -0.6341    0.5256    0.9811 H   0  0  0  0  0  0
   -0.9016   -2.1940   -2.3186 H   0  0  0  0  0  0
    3.3879    0.3314    2.9520 H   0  0  0  0  0  0
    0.1277   -4.8251   -1.0846 H   0  0  0  0  0  0
    3.6066   -2.6687   -2.2890 H   0  0  0  0  0  0
    3.4227   -1.1060   -1.5293 H   0  0  0  0  0  0
    0.3306   -2.4614   -4.2261 H   0  0  0  0  0  0
    1.6999   -3.5045   -3.9345 H   0  0  0  0  0  0
    3.6543    0.0401   -3.6987 H   0  0  0  0  0  0
    5.0280   -1.0067   -3.4283 H   0  0  0  0  0  0
    1.9414   -2.3723   -6.1127 H   0  0  0  0  0  0
    1.7438   -0.8058   -5.3644 H   0  0  0  0  0  0
    1.3406   -0.6953   -2.7767 H   0  0  0  0  0  0
    4.0628   -2.7488   -4.8945 H   0  0  0  0  0  0
    1.9717    1.4610    4.6813 H   0  0  0  0  0  0
    1.8563   -0.2931    4.7447 H   0  0  0  0  0  0
    0.5513    0.6472    4.0283 H   0  0  0  0  0  0
    5.8905    5.3156    3.2478 H   0  0  0  0  0  0
    2.6441   -1.2238    1.7173 H   0  0  0  0  0  0
   -1.2070   -4.2124   -2.8868 H   0  0  0  0  0  0
   -2.5888   -4.6040   -2.0686 H   0  0  0  0  0  0
    1.5187   -2.1297   -0.7030 H   0  0  0  0  0  0
    4.1503   -1.5470   -6.8006 H   0  0  0  0  0  0
    4.5038    4.5053    3.5888 H   0  0  0  0  0  0
    1.1502   -3.3821   -1.6763 H   0  0  0  0  0  0
   -1.5096   -5.7787   -2.4617 H   0  0  0  0  0  0
    1.6972   -0.9084    0.0664 H   0  0  0  0  0  0
  1  2  1  0  0  0
  1  4  1  0  0  0
  1 38  1  0  0  0
  1 39  1  0  0  0
  2  7  1  0  0  0
  2 40  1  0  0  0
  2 41  1  0  0  0
  3  5  1  0  0  0
  3  8  1  0  0  0
  3 42  1  0  0  0
  3 43  1  0  0  0
  4 13  1  0  0  0
  4 44  1  0  0  0
  4 45  1  0  0  0
  5 15  1  0  0  0
  5 46  1  0  0  0
  5 47  1  0  0  0
  6  9  1  0  0  0
  6 17  1  0  0  0
  6 48  1  0  0  0
  6 49  1  0  0  0
  7 18  1  0  0  0
  7 50  1  0  0  0
  7 51  1  0  0  0
  8 19  1  0  0  0
  8 52  1  0  0  0
  8 53  1  0  0  0
  9 20  1  0  0  0
  9 54  1  0  0  0
  9 55  1  0  0  0
 10 13  1  0  0  0
 10 16  1  0  0  0
 10 56  1  0  0  0
 10 57  1  0  0  0
 11 20  1  0  0  0
 11 21  1  0  0  0
 11 58  1  0  0  0
 11 59  1  0  0  0
 12 16  1  0  0  0
 12 31  1  0  0  0
 12 60  1  0  0  0
 12 61  1  0  0  0
 13 18  1  0  0  0
 13 62  1  0  0  0
 14 15  1  0  0  0
 14 19  1  0  0  0
 14 22  1  0  0  0
 14 63  1  0  0  0
 15 16  1  0  0  0
 15 64  1  0  0  0
 16 65  1  0  0  0
 17 21  1  0  0  0
 17 23  1  0  0  0
 17 66  1  0  0  0
 18 31  1  0  0  0
 18 67  1  0  0  0
 19 33  1  0  0  0
 19 68  1  0  0  0
 20 33  1  0  0  0
 20 69  1  0  0  0
 21 35  1  0  0  0
 21 70  1  0  0  0
 22 30  1  0  0  0
 22 32  1  0  0  0
 22 71  1  0  0  0
 23 34  1  0  0  0
 23 36  1  0  0  0
 23 72  1  0  0  0
 24 26  1  0  0  0
 24 28  1  0  0  0
 24 73  1  0  0  0
 24 74  1  0  0  0
 25 27  1  0  0  0
 25 28  1  0  0  0
 25 75  1  0  0  0
 25 76  1  0  0  0
 26 29  1  0  0  0
 26 77  1  0  0  0
 26 78  1  0  0  0
 27 29  1  0  0  0
 27 79  1  0  0  0
 27 80  1  0  0  0
 28 35  1  0  0  0
 28 81  1  0  0  0
 29 37  1  0  0  0
 29 82  1  0  0  0
 30 83  1  0  0  0
 30 84  1  0  0  0
 30 85  1  0  0  0
 31 86  1  0  0  0
 31 92  1  0  0  0
 32 33  1  0  0  0
 32 87  1  0  0  0
 33 95  1  0  0  0
 34 88  1  0  0  0
 34 89  1  0  0  0
 34 94  1  0  0  0
 35 90  1  0  0  0
 35 93  1  0  0  0
 37 91  1  0  0  0
M  CHG  5  31   1  33   1  34   1  35   1  36  -1
M  END
> <entry id>
44

> <entry name>
pdb5lq9-lig.1

> <PDB format version>
3.0

> <Source Path>
C:\Users\zzy\Desktop\hsp90-33sys\crystal-ligand

> <Source File>
pdb5lq9-lig.pdb

> <Source File Index>
1

> <source file>
ligprep_hsp90-33system.maegz

> <source file index>
11

> <mmshare version>
37011

> <Ionization Penalty>
0.393

> <Ionization Penalty Charging>
0.393

> <Ionization Penalty Neutral>
0

> <State Penalty>
0.6055

> <Charging Adjusted Penalty>
0.998444

> <Tot Q>
3

> <Tot abs Q>
5

> <Chemistry Notes>
This compound contains an acetal/aminal-like group ( X-CH(R)-Y where X, Y are N, S, or O) that may be acid/base labile, releasing an aldehyde.

> <i_f3d_flags>
0

> <Force Field>
OPLS_2005

> <Energy>
113.966

> <Chiralities Consistent>
1

> <Variant>
pdb5lq9-lig-1

> <job name>
ligprep_hsp90-33system

> <subgroupid>
ligprep_hsp90-33system-out1

> <subgroup title>
ligprep_hsp90-33system-out1

> <subgroup collapsed>
0

$$$$
