pdb5lr1-lig
                    3D
 Structure written by MMmdl.
 50 52  0  0  1  0            999 V2000
   -2.4931    0.5636   -3.6774 C   0  0  1  0  0  0
   -2.1406    1.9795    0.2675 C   0  0  0  0  0  0
   -2.4531    1.0764   -0.9129 C   0  0  2  0  0  0
   -3.7030    0.3720   -2.8621 N   0  0  0  0  0  0
   -1.2621    1.3400   -1.8140 C   0  0  2  0  0  0
   -0.6035    2.1299    0.2118 C   0  0  0  0  0  0
    0.3317   -0.0023   -0.4685 C   0  0  0  0  0  0
    1.7339    0.0534    0.1840 C   0  0  1  0  0  0
    2.1178   -1.2707    0.9044 C   0  0  1  0  0  0
    3.5673   -1.2080    1.4477 C   0  0  1  0  0  0
   -3.7648    1.2540   -1.6924 C   0  0  2  0  0  0
   -4.0187    2.9173   -2.3011 Cl  0  0  0  0  0  0
   -1.2631    0.3677   -2.9000 N   0  0  0  0  0  0
   -2.5171   -0.4105   -4.7793 N   0  3  0  0  0  0
   -0.1024    1.3277   -0.9192 N   0  0  0  0  0  0
    4.5534   -0.8423    0.3176 C   0  0  1  0  0  0
    4.1219    0.4656   -0.3693 C   0  0  0  0  0  0
    2.7349    0.3577   -0.8671 N   0  3  0  0  0  0
    3.6875   -0.0385    2.7994 Cl  0  0  0  0  0  0
    6.0167   -0.7932    0.7870 C   0  0  0  0  0  0
    1.1286   -1.6801    2.0140 C   0  0  0  0  0  0
   -2.4924    1.5624   -4.1155 H   0  0  0  0  0  0
   -2.6148    2.9562    0.1697 H   0  0  0  0  0  0
   -2.4761    1.5383    1.2065 H   0  0  0  0  0  0
   -2.4252    0.0438   -0.5591 H   0  0  0  0  0  0
   -3.7303   -0.5845   -2.5381 H   0  0  0  0  0  0
   -1.3208    2.3424   -2.2431 H   0  0  0  0  0  0
   -0.3590    3.1749    0.0172 H   0  0  0  0  0  0
   -0.1401    1.8715    1.1637 H   0  0  0  0  0  0
    0.3764   -0.7004   -1.3044 H   0  0  0  0  0  0
   -0.4055   -0.4000    0.2267 H   0  0  0  0  0  0
    1.7674    0.8613    0.9147 H   0  0  0  0  0  0
    2.0940   -2.0674    0.1592 H   0  0  0  0  0  0
    3.8418   -2.1799    1.8606 H   0  0  0  0  0  0
   -4.6270    0.9965   -1.0769 H   0  0  0  0  0  0
   -0.4581    0.5289   -3.4891 H   0  0  0  0  0  0
   -2.5039   -1.3489   -4.4064 H   0  0  0  0  0  0
   -1.7121   -0.2730   -5.3734 H   0  0  0  0  0  0
    4.4951   -1.6362   -0.4289 H   0  0  0  0  0  0
    4.1978    1.3132    0.3128 H   0  0  0  0  0  0
    4.7759    0.6823   -1.2144 H   0  0  0  0  0  0
    2.7006   -0.3747   -1.5613 H   0  0  0  0  0  0
    6.1889    0.0136    1.4998 H   0  0  0  0  0  0
    6.6901   -0.6328   -0.0554 H   0  0  0  0  0  0
    6.3071   -1.7290    1.2653 H   0  0  0  0  0  0
    0.9531   -0.8675    2.7195 H   0  0  0  0  0  0
    1.5053   -2.5336    2.5787 H   0  0  0  0  0  0
    0.1638   -1.9790    1.6062 H   0  0  0  0  0  0
   -3.3580   -0.2781   -5.3233 H   0  0  0  0  0  0
    2.4801    1.2316   -1.3053 H   0  0  0  0  0  0
  1  4  1  0  0  0
  1 13  1  0  0  0
  1 14  1  0  0  0
  1 22  1  0  0  0
  2  3  1  0  0  0
  2  6  1  0  0  0
  2 23  1  0  0  0
  2 24  1  0  0  0
  3  5  1  0  0  0
  3 11  1  0  0  0
  3 25  1  0  0  0
  4 11  1  0  0  0
  4 26  1  0  0  0
  5 13  1  0  0  0
  5 15  1  0  0  0
  5 27  1  0  0  0
  6 15  1  0  0  0
  6 28  1  0  0  0
  6 29  1  0  0  0
  7  8  1  0  0  0
  7 15  1  0  0  0
  7 30  1  0  0  0
  7 31  1  0  0  0
  8  9  1  0  0  0
  8 18  1  0  0  0
  8 32  1  0  0  0
  9 10  1  0  0  0
  9 21  1  0  0  0
  9 33  1  0  0  0
 10 16  1  0  0  0
 10 19  1  0  0  0
 10 34  1  0  0  0
 11 12  1  0  0  0
 11 35  1  0  0  0
 13 36  1  0  0  0
 14 37  1  0  0  0
 14 38  1  0  0  0
 14 49  1  0  0  0
 16 17  1  0  0  0
 16 20  1  0  0  0
 16 39  1  0  0  0
 17 18  1  0  0  0
 17 40  1  0  0  0
 17 41  1  0  0  0
 18 42  1  0  0  0
 18 50  1  0  0  0
 20 43  1  0  0  0
 20 44  1  0  0  0
 20 45  1  0  0  0
 21 46  1  0  0  0
 21 47  1  0  0  0
 21 48  1  0  0  0
M  CHG  2  14   1  18   1
M  END
> <entry id>
45

> <entry name>
pdb5lr1-lig.1

> <PDB format version>
3.0

> <Source Path>
C:\Users\zzy\Desktop\hsp90-33sys\crystal-ligand

> <Source File>
pdb5lr1-lig.pdb

> <Source File Index>
1

> <source file>
ligprep_hsp90-33system.maegz

> <source file index>
12

> <mmshare version>
37011

> <Ionization Penalty>
0.0219

> <Ionization Penalty Charging>
0.0218

> <Ionization Penalty Neutral>
0.0001

> <State Penalty>
0

> <Charging Adjusted Penalty>
0.0217965

> <Tot Q>
2

> <Tot abs Q>
2

> <Chemistry Notes>
This compound contains an acetal/aminal-like group ( X-CH(R)-Y where X, Y are N, S, or O) that may be acid/base labile, releasing an aldehyde.

> <i_f3d_flags>
0

> <Force Field>
OPLS_2005

> <Energy>
60.4287

> <Chiralities Consistent>
1

> <Variant>
pdb5lr1-lig-1

> <job name>
ligprep_hsp90-33system

> <tautomer probability>
1

> <subgroupid>
ligprep_hsp90-33system-out1

> <subgroup title>
ligprep_hsp90-33system-out1

> <subgroup collapsed>
0

$$$$
