pdb5odx-lig
                    3D
 Structure written by MMmdl.
 85 89  0  0  1  0            999 V2000
   -0.0951   -0.5427   -0.3313 C   0  0  1  0  0  0
    2.0992   -0.8854   -1.7133 C   0  0  1  0  0  0
    2.5479    1.3884   -2.6972 C   0  0  1  0  0  0
    1.7656    2.0392   -1.5817 C   0  0  2  0  0  0
    2.2260    3.5022   -1.7044 C   0  0  1  0  0  0
    3.5050    3.8799   -0.8994 C   0  0  2  0  0  0
    5.3973    5.5023   -0.7929 C   0  0  0  0  0  0
    3.6334    7.6800   -1.6664 C   0  0  1  0  0  0
    5.0622    7.9785   -1.1883 C   0  0  0  0  0  0
    5.9720    6.7704   -1.4441 C   0  0  0  0  0  0
   -0.2270   -0.1782    2.2121 C   0  0  2  0  0  0
   -0.9526    1.6785    3.7926 C   0  0  0  0  0  0
   -1.8709   -1.6609    1.0204 C   0  0  0  0  0  0
   -2.9228    1.1003    5.9697 C   0  0  0  0  0  0
   -4.1541    0.4244    6.5977 C   0  0  0  0  0  0
   -2.7916   -1.3019    7.4444 C   0  0  0  0  0  0
   -0.5174   -1.0416    1.0216 N   0  3  1  0  0  0
   -0.8292    0.5109   -0.5898 O   0  5  0  0  0  0
    1.4485   -0.2499   -0.4393 C   0  0  1  0  0  0
    1.8972    1.2417   -0.2694 C   0  0  0  0  0  0
    1.9910   -0.0105   -2.9845 C   0  0  0  0  0  0
    3.4676   -1.1495   -1.4598 O   0  0  0  0  0  0
    2.4228    3.6594   -3.1618 N   0  0  0  0  0  0
    2.5217    2.3679   -3.7728 N   0  0  0  0  0  0
    3.1972    3.9500    0.3744 O   0  5  0  0  0  0
    4.0120    5.2404   -1.2694 N   0  3  2  0  0  0
    3.1044    6.3953   -0.9960 C   0  0  0  0  0  0
    2.8305    8.8050   -1.3327 O   0  0  0  0  0  0
    1.6157    8.8955   -2.0615 C   0  0  0  0  0  0
    0.1199   -1.0418    3.4414 C   0  0  0  0  0  0
   -0.6707    0.8008    5.0402 C   0  0  2  0  0  0
    0.4771   -0.1692    4.6573 C   0  0  0  0  0  0
   -1.3393    0.8385    2.5635 C   0  0  0  0  0  0
   -1.8654    0.1448    5.6231 N   0  0  0  0  0  0
   -3.7623   -0.3102    7.7491 O   0  0  0  0  0  0
   -1.5504   -0.6391    6.8222 C   0  0  0  0  0  0
   -0.2414   -1.4362   -0.9374 H   0  0  0  0  0  0
    1.6598   -1.8610   -1.9203 H   0  0  0  0  0  0
    3.5896    1.2912   -2.3895 H   0  0  0  0  0  0
    0.7158    2.0429   -1.8737 H   0  0  0  0  0  0
    1.4022    4.1478   -1.3995 H   0  0  0  0  0  0
    4.2771    3.1918   -1.2458 H   0  0  0  0  0  0
    6.0416    4.6557   -1.0323 H   0  0  0  0  0  0
    5.3995    5.6038    0.2935 H   0  0  0  0  0  0
    3.6532    7.5490   -2.7500 H   0  0  0  0  0  0
    5.4546    8.8582   -1.6994 H   0  0  0  0  0  0
    5.0554    8.2124   -0.1228 H   0  0  0  0  0  0
    6.9718    6.9679   -1.0565 H   0  0  0  0  0  0
    6.0809    6.6134   -2.5180 H   0  0  0  0  0  0
    0.6770    0.3875    2.0130 H   0  0  0  0  0  0
   -1.7009    2.4456    3.9828 H   0  0  0  0  0  0
   -0.0493    2.2410    3.5515 H   0  0  0  0  0  0
   -2.6485   -0.9272    0.8055 H   0  0  0  0  0  0
   -2.1002   -2.1248    1.9788 H   0  0  0  0  0  0
   -1.9365   -2.4424    0.2632 H   0  0  0  0  0  0
   -3.2691    1.6282    5.0832 H   0  0  0  0  0  0
   -2.5318    1.8528    6.6563 H   0  0  0  0  0  0
   -4.8901    1.1744    6.8878 H   0  0  0  0  0  0
   -4.6393   -0.2390    5.8798 H   0  0  0  0  0  0
   -2.5207   -1.8273    8.3603 H   0  0  0  0  0  0
   -3.2161   -2.0425    6.7647 H   0  0  0  0  0  0
    1.8909   -0.7937    0.3972 H   0  0  0  0  0  0
    2.9397    1.2485    0.0493 H   0  0  0  0  0  0
    1.3400    1.7519    0.5142 H   0  0  0  0  0  0
    2.5307   -0.4729   -3.8116 H   0  0  0  0  0  0
    0.9476    0.0604   -3.2951 H   0  0  0  0  0  0
    3.5320   -1.6967   -0.6924 H   0  0  0  0  0  0
    1.6217    4.1390   -3.5675 H   0  0  0  0  0  0
    3.3701    2.3140   -4.3328 H   0  0  0  0  0  0
    3.0119    6.5544    0.0795 H   0  0  0  0  0  0
    2.1065    6.1795   -1.3703 H   0  0  0  0  0  0
    1.0902    9.8064   -1.7755 H   0  0  0  0  0  0
    0.9524    8.0555   -1.8563 H   0  0  0  0  0  0
    1.8009    8.9419   -3.1353 H   0  0  0  0  0  0
   -0.7116   -1.6950    3.7051 H   0  0  0  0  0  0
    0.9612   -1.6945    3.2057 H   0  0  0  0  0  0
   -0.2702    1.4695    5.8038 H   0  0  0  0  0  0
    0.7959   -0.7896    5.4926 H   0  0  0  0  0  0
    1.3605    0.4203    4.4083 H   0  0  0  0  0  0
   -1.5270    1.5089    1.7257 H   0  0  0  0  0  0
   -2.2810    0.3309    2.7717 H   0  0  0  0  0  0
   -1.0698   -0.0015    7.5657 H   0  0  0  0  0  0
   -0.8488   -1.4368    6.5877 H   0  0  0  0  0  0
    4.0875    5.2014   -2.2753 H   0  0  0  0  0  0
    0.1031   -1.8255    1.1607 H   0  0  0  0  0  0
  1 17  1  0  0  0
  1 18  1  0  0  0
  1 19  1  0  0  0
  1 37  1  0  0  0
  2 19  1  0  0  0
  2 21  1  0  0  0
  2 22  1  0  0  0
  2 38  1  0  0  0
  3  4  1  0  0  0
  3 21  1  0  0  0
  3 24  1  0  0  0
  3 39  1  0  0  0
  4  5  1  0  0  0
  4 20  1  0  0  0
  4 40  1  0  0  0
  5  6  1  0  0  0
  5 23  1  0  0  0
  5 41  1  0  0  0
  6 25  1  0  0  0
  6 26  1  0  0  0
  6 42  1  0  0  0
  7 10  1  0  0  0
  7 26  1  0  0  0
  7 43  1  0  0  0
  7 44  1  0  0  0
  8  9  1  0  0  0
  8 27  1  0  0  0
  8 28  1  0  0  0
  8 45  1  0  0  0
  9 10  1  0  0  0
  9 46  1  0  0  0
  9 47  1  0  0  0
 10 48  1  0  0  0
 10 49  1  0  0  0
 11 17  1  0  0  0
 11 30  1  0  0  0
 11 33  1  0  0  0
 11 50  1  0  0  0
 12 31  1  0  0  0
 12 33  1  0  0  0
 12 51  1  0  0  0
 12 52  1  0  0  0
 13 17  1  0  0  0
 13 53  1  0  0  0
 13 54  1  0  0  0
 13 55  1  0  0  0
 14 15  1  0  0  0
 14 34  1  0  0  0
 14 56  1  0  0  0
 14 57  1  0  0  0
 15 35  1  0  0  0
 15 58  1  0  0  0
 15 59  1  0  0  0
 16 35  1  0  0  0
 16 36  1  0  0  0
 16 60  1  0  0  0
 16 61  1  0  0  0
 17 85  1  0  0  0
 19 20  1  0  0  0
 19 62  1  0  0  0
 20 63  1  0  0  0
 20 64  1  0  0  0
 21 65  1  0  0  0
 21 66  1  0  0  0
 22 67  1  0  0  0
 23 24  1  0  0  0
 23 68  1  0  0  0
 24 69  1  0  0  0
 26 27  1  0  0  0
 26 84  1  0  0  0
 27 70  1  0  0  0
 27 71  1  0  0  0
 28 29  1  0  0  0
 29 72  1  0  0  0
 29 73  1  0  0  0
 29 74  1  0  0  0
 30 32  1  0  0  0
 30 75  1  0  0  0
 30 76  1  0  0  0
 31 32  1  0  0  0
 31 34  1  0  0  0
 31 77  1  0  0  0
 32 78  1  0  0  0
 32 79  1  0  0  0
 33 80  1  0  0  0
 33 81  1  0  0  0
 34 36  1  0  0  0
 36 82  1  0  0  0
 36 83  1  0  0  0
M  CHG  4  17   1  18  -1  25  -1  26   1
M  END
> <entry id>
52

> <entry name>
pdb5odx-lig.1

> <PDB format version>
3.0

> <Source Path>
C:\Users\zzy\Desktop\hsp90-33sys\crystal-ligand

> <Source File>
pdb5odx-lig.pdb

> <Source File Index>
1

> <source file>
ligprep_hsp90-33system.maegz

> <source file index>
19

> <mmshare version>
37011

> <Ionization Penalty>
0.5594

> <Ionization Penalty Charging>
0.3173

> <Ionization Penalty Neutral>
0.2421

> <State Penalty>
0.8012

> <Charging Adjusted Penalty>
1.11849

> <Tot Q>
0

> <Tot abs Q>
4

> <Chemistry Notes>
This compound contains an acetal/aminal-like group ( X-CH(R)-Y where X, Y are N, S, or O) that may be acid/base labile, releasing an aldehyde.

> <i_f3d_flags>
0

> <Force Field>
OPLS_2005

> <Energy>
99.987

> <Chiralities Consistent>
1

> <Variant>
pdb5odx-lig-1

> <job name>
ligprep_hsp90-33system

> <subgroupid>
ligprep_hsp90-33system-out1

> <subgroup title>
ligprep_hsp90-33system-out1

> <subgroup collapsed>
0

$$$$
