pdb5j2x-lig
                    3D
 Structure written by MMmdl.
 47 49  0  0  1  0            999 V2000
    4.1783   -0.8578   -1.2132 C   0  0  2  0  0  0
    3.6905    0.5976   -1.3005 C   0  0  0  0  0  0
    2.1528    0.6724   -1.3552 C   0  0  1  0  0  0
   -0.0558    0.0394   -0.1692 C   0  0  1  0  0  0
   -1.7822   -1.3533    0.5468 C   0  0  1  0  0  0
   -0.9878    0.3867    2.1668 C   0  0  1  0  0  0
   -1.4262   -0.4065    3.4342 C   0  0  1  0  0  0
   -1.7047    0.5122    4.6370 C   0  0  0  0  0  0
    0.2132    1.2915    2.5421 C   0  0  0  0  0  0
    1.5011   -0.0498   -0.1490 C   0  0  1  0  0  0
    2.0151   -1.5095   -0.0505 C   0  0  0  0  0  0
    3.5504   -1.5992   -0.0178 C   0  0  2  0  0  0
    5.5878   -0.8956   -1.1294 O   0  0  0  0  0  0
    1.7885    2.0390   -1.3686 O   0  0  0  0  0  0
   -0.6247   -0.6936   -1.3045 N   0  0  0  0  0  0
   -1.4110   -1.7390   -0.7994 N   0  0  0  0  0  0
   -0.6712   -0.5305    1.0433 N   0  0  0  0  0  0
   -0.5011    1.4015    4.9638 C   0  0  0  0  0  0
   -0.0896    2.2132    3.7318 C   0  0  0  0  0  0
   -2.9386   -0.5434    0.3969 O   0  0  0  0  0  0
   -2.5449   -1.1027    3.2345 F   0  0  0  0  0  0
    4.2187   -0.8577    1.7118 Br  0  0  0  0  0  0
    3.8943   -1.3738   -2.1313 H   0  0  0  0  0  0
    4.0568    1.1629   -0.4420 H   0  0  0  0  0  0
    4.1145    1.0755   -2.1847 H   0  0  0  0  0  0
    1.8091    0.2217   -2.2870 H   0  0  0  0  0  0
   -0.3784    1.0764   -0.2664 H   0  0  0  0  0  0
   -1.9873   -2.2315    1.1589 H   0  0  0  0  0  0
   -1.7977    1.0529    1.8689 H   0  0  0  0  0  0
   -0.6581   -1.1342    3.7002 H   0  0  0  0  0  0
   -2.5704    1.1404    4.4226 H   0  0  0  0  0  0
   -1.9673   -0.0865    5.5098 H   0  0  0  0  0  0
    1.0775    0.6746    2.7923 H   0  0  0  0  0  0
    0.4966    1.9263    1.7030 H   0  0  0  0  0  0
    1.8706    0.4663    0.7313 H   0  0  0  0  0  0
    1.6091   -2.0001    0.8344 H   0  0  0  0  0  0
    1.6562   -2.0813   -0.9067 H   0  0  0  0  0  0
    3.8517   -2.6471   -0.0371 H   0  0  0  0  0  0
    5.9462   -0.4594   -1.8874 H   0  0  0  0  0  0
    0.8509    2.0999   -1.4697 H   0  0  0  0  0  0
   -1.2220   -0.0799   -1.8552 H   0  0  0  0  0  0
   -0.8375   -2.5798   -0.7728 H   0  0  0  0  0  0
   -0.7441    2.0711    5.7893 H   0  0  0  0  0  0
    0.3347    0.7849    5.2968 H   0  0  0  0  0  0
    0.7871    2.8186    3.9636 H   0  0  0  0  0  0
   -0.8854    2.9097    3.4648 H   0  0  0  0  0  0
   -2.7464    0.3177    0.7340 H   0  0  0  0  0  0
  1  2  1  0  0  0
  1 12  1  0  0  0
  1 13  1  0  0  0
  1 23  1  0  0  0
  2  3  1  0  0  0
  2 24  1  0  0  0
  2 25  1  0  0  0
  3 10  1  0  0  0
  3 14  1  0  0  0
  3 26  1  0  0  0
  4 10  1  0  0  0
  4 15  1  0  0  0
  4 17  1  0  0  0
  4 27  1  0  0  0
  5 16  1  0  0  0
  5 17  1  0  0  0
  5 20  1  0  0  0
  5 28  1  0  0  0
  6  7  1  0  0  0
  6  9  1  0  0  0
  6 17  1  0  0  0
  6 29  1  0  0  0
  7  8  1  0  0  0
  7 21  1  0  0  0
  7 30  1  0  0  0
  8 18  1  0  0  0
  8 31  1  0  0  0
  8 32  1  0  0  0
  9 19  1  0  0  0
  9 33  1  0  0  0
  9 34  1  0  0  0
 10 11  1  0  0  0
 10 35  1  0  0  0
 11 12  1  0  0  0
 11 36  1  0  0  0
 11 37  1  0  0  0
 12 22  1  0  0  0
 12 38  1  0  0  0
 13 39  1  0  0  0
 14 40  1  0  0  0
 15 16  1  0  0  0
 15 41  1  0  0  0
 16 42  1  0  0  0
 18 19  1  0  0  0
 18 43  1  0  0  0
 18 44  1  0  0  0
 19 45  1  0  0  0
 19 46  1  0  0  0
 20 47  1  0  0  0
M  END
> <entry id>
35

> <entry name>
pdb5j2x-lig.1

> <PDB format version>
3.0

> <Source Path>
C:\Users\zzy\Desktop\hsp90-33sys\crystal-ligand

> <Source File>
pdb5j2x-lig.pdb

> <Source File Index>
1

> <source file>
ligprep_hsp90-33system.maegz

> <source file index>
2

> <mmshare version>
37011

> <Ionization Penalty>
0.1233

> <Ionization Penalty Charging>
0

> <Ionization Penalty Neutral>
0.1233

> <State Penalty>
0.1127

> <Charging Adjusted Penalty>
0.112718

> <Tot Q>
0

> <Tot abs Q>
0

> <Chemistry Notes>
This compound contains an acetal/aminal-like group ( X-CH(R)-Y where X, Y are N, S, or O) that may be acid/base labile, releasing an aldehyde.

> <i_f3d_flags>
0

> <Force Field>
OPLS_2005

> <Energy>
44.6838

> <Chiralities Consistent>
1

> <Variant>
pdb5j2x-lig-1

> <job name>
ligprep_hsp90-33system

> <subgroupid>
ligprep_hsp90-33system-out1

> <subgroup title>
ligprep_hsp90-33system-out1

> <subgroup collapsed>
0

$$$$
