pdb5lnz-lig
                    3D
 Structure written by MMmdl.
 83 86  0  0  1  0            999 V2000
   -1.5103   -3.0602    4.1469 C   0  0  2  0  0  0
   -3.5716   -1.7266    3.2628 C   0  0  1  0  0  0
   -2.3579   -0.0659    1.7970 C   0  0  1  0  0  0
   -1.2060   -1.0327    1.6576 C   0  0  2  0  0  0
   -0.4802   -0.4379    0.4460 C   0  0  2  0  0  0
    1.0211   -0.8288    0.3837 C   0  0  1  0  0  0
    0.8679   -3.9596    4.3679 C   0  0  1  0  0  0
    2.3684   -3.3150    6.3280 C   0  0  0  0  0  0
    3.1303   -2.8555    4.0052 C   0  0  0  0  0  0
    0.9194   -3.5205    5.8508 C   0  0  0  0  0  0
   -0.9871   -5.5460    3.9036 C   0  0  0  0  0  0
    2.6559   -0.8959    5.5589 N   0  0  0  0  0  0
    3.2469   -0.3307   -0.6967 C   0  0  0  0  0  0
    3.9287    0.0192    0.6398 C   0  0  0  0  0  0
    5.4602   -0.0071    0.5555 C   0  0  0  0  0  0
    1.2073   -0.2490   -2.0694 C   0  0  0  0  0  0
    6.1209    0.2853    1.9074 C   0  0  0  0  0  0
   -0.5110   -4.1370    3.8177 N   0  3  1  0  0  0
   -2.1970   -3.4896    5.1807 O   0  5  0  0  0  0
   -2.4897   -2.8156    2.9526 C   0  0  1  0  0  0
   -1.7419   -2.4751    1.6264 C   0  0  0  0  0  0
   -3.0565   -0.2695    3.1471 C   0  0  0  0  0  0
   -4.6663   -1.8940    2.3809 O   0  0  0  0  0  0
   -0.6884    1.0159    0.6114 N   0  0  0  0  0  0
   -1.7739    1.2359    1.5167 N   0  0  0  0  0  0
    1.0993   -2.1051    0.0910 O   0  5  0  0  0  0
    1.6994   -3.0242    3.4703 C   0  0  0  0  0  0
    3.1366   -2.2927    5.4481 C   0  0  1  0  0  0
    1.7709   -0.1102   -0.6996 N   0  3  1  0  0  0
    2.6902   -0.3880    6.9332 C   0  0  0  0  0  0
    2.1919    1.0638    7.0379 C   0  0  0  0  0  0
    2.9656    1.8991    6.1868 O   0  0  0  0  0  0
    2.9050    1.4828    4.8293 C   0  0  0  0  0  0
    3.4060    0.0343    4.7097 C   0  0  0  0  0  0
   -0.9460   -2.1362    4.2366 H   0  0  0  0  0  0
   -3.9817   -1.8715    4.2622 H   0  0  0  0  0  0
   -3.0763   -0.2590    0.9985 H   0  0  0  0  0  0
   -0.5452   -0.9046    2.5130 H   0  0  0  0  0  0
   -1.0078   -0.7496   -0.4562 H   0  0  0  0  0  0
    1.4232   -0.4452    1.3206 H   0  0  0  0  0  0
    1.3657   -4.9291    4.3115 H   0  0  0  0  0  0
    2.3878   -3.0491    7.3833 H   0  0  0  0  0  0
    2.8853   -4.2743    6.2807 H   0  0  0  0  0  0
    3.6188   -3.8307    4.0049 H   0  0  0  0  0  0
    3.7287   -2.2561    3.3218 H   0  0  0  0  0  0
    0.3792   -2.5879    6.0088 H   0  0  0  0  0  0
    0.4285   -4.2674    6.4752 H   0  0  0  0  0  0
   -1.0554   -5.8794    4.9399 H   0  0  0  0  0  0
   -0.2990   -6.2120    3.3826 H   0  0  0  0  0  0
   -1.9646   -5.6680    3.4379 H   0  0  0  0  0  0
    3.6842    0.2937   -1.4768 H   0  0  0  0  0  0
    3.4702   -1.3630   -0.9699 H   0  0  0  0  0  0
    3.6013    1.0037    0.9761 H   0  0  0  0  0  0
    3.6237   -0.6951    1.4034 H   0  0  0  0  0  0
    5.7910   -0.9835    0.1995 H   0  0  0  0  0  0
    5.8012    0.7232   -0.1789 H   0  0  0  0  0  0
    1.2569   -1.2796   -2.4226 H   0  0  0  0  0  0
    1.7637    0.3688   -2.7748 H   0  0  0  0  0  0
    0.1713    0.0825   -2.1175 H   0  0  0  0  0  0
    7.2075    0.2737    1.8195 H   0  0  0  0  0  0
    5.8398   -0.4602    2.6519 H   0  0  0  0  0  0
    5.8275    1.2645    2.2872 H   0  0  0  0  0  0
   -3.0211   -3.7532    2.7813 H   0  0  0  0  0  0
   -2.4257   -2.5853    0.7841 H   0  0  0  0  0  0
   -0.9365   -3.1831    1.4396 H   0  0  0  0  0  0
   -3.8802    0.4361    3.2611 H   0  0  0  0  0  0
   -2.3588   -0.0609    3.9594 H   0  0  0  0  0  0
   -4.3571   -1.7847    1.4950 H   0  0  0  0  0  0
    0.1447    1.4428    1.0113 H   0  0  0  0  0  0
   -2.4594    1.8559    1.0898 H   0  0  0  0  0  0
    1.7366   -3.4261    2.4577 H   0  0  0  0  0  0
    1.2306   -2.0445    3.3963 H   0  0  0  0  0  0
    4.1740   -2.3052    5.7858 H   0  0  0  0  0  0
    2.0583   -0.9913    7.5820 H   0  0  0  0  0  0
    3.7055   -0.4532    7.3271 H   0  0  0  0  0  0
    1.1375    1.1298    6.7649 H   0  0  0  0  0  0
    2.2798    1.4216    8.0637 H   0  0  0  0  0  0
    1.8824    1.5687    4.4584 H   0  0  0  0  0  0
    3.5217    2.1468    4.2238 H   0  0  0  0  0  0
    4.4672   -0.0069    4.9601 H   0  0  0  0  0  0
    3.3147   -0.2438    3.6628 H   0  0  0  0  0  0
   -0.3665   -4.0093    2.8264 H   0  0  0  0  0  0
    1.6563    0.8676   -0.4759 H   0  0  0  0  0  0
  1 18  1  0  0  0
  1 19  1  0  0  0
  1 20  1  0  0  0
  1 35  1  0  0  0
  2 20  1  0  0  0
  2 22  1  0  0  0
  2 23  1  0  0  0
  2 36  1  0  0  0
  3  4  1  0  0  0
  3 22  1  0  0  0
  3 25  1  0  0  0
  3 37  1  0  0  0
  4  5  1  0  0  0
  4 21  1  0  0  0
  4 38  1  0  0  0
  5  6  1  0  0  0
  5 24  1  0  0  0
  5 39  1  0  0  0
  6 26  1  0  0  0
  6 29  1  0  0  0
  6 40  1  0  0  0
  7 10  1  0  0  0
  7 18  1  0  0  0
  7 27  1  0  0  0
  7 41  1  0  0  0
  8 10  1  0  0  0
  8 28  1  0  0  0
  8 42  1  0  0  0
  8 43  1  0  0  0
  9 27  1  0  0  0
  9 28  1  0  0  0
  9 44  1  0  0  0
  9 45  1  0  0  0
 10 46  1  0  0  0
 10 47  1  0  0  0
 11 18  1  0  0  0
 11 48  1  0  0  0
 11 49  1  0  0  0
 11 50  1  0  0  0
 12 28  1  0  0  0
 12 30  1  0  0  0
 12 34  1  0  0  0
 13 14  1  0  0  0
 13 29  1  0  0  0
 13 51  1  0  0  0
 13 52  1  0  0  0
 14 15  1  0  0  0
 14 53  1  0  0  0
 14 54  1  0  0  0
 15 17  1  0  0  0
 15 55  1  0  0  0
 15 56  1  0  0  0
 16 29  1  0  0  0
 16 57  1  0  0  0
 16 58  1  0  0  0
 16 59  1  0  0  0
 17 60  1  0  0  0
 17 61  1  0  0  0
 17 62  1  0  0  0
 18 82  1  0  0  0
 20 21  1  0  0  0
 20 63  1  0  0  0
 21 64  1  0  0  0
 21 65  1  0  0  0
 22 66  1  0  0  0
 22 67  1  0  0  0
 23 68  1  0  0  0
 24 25  1  0  0  0
 24 69  1  0  0  0
 25 70  1  0  0  0
 27 71  1  0  0  0
 27 72  1  0  0  0
 28 73  1  0  0  0
 29 83  1  0  0  0
 30 31  1  0  0  0
 30 74  1  0  0  0
 30 75  1  0  0  0
 31 32  1  0  0  0
 31 76  1  0  0  0
 31 77  1  0  0  0
 32 33  1  0  0  0
 33 34  1  0  0  0
 33 78  1  0  0  0
 33 79  1  0  0  0
 34 80  1  0  0  0
 34 81  1  0  0  0
M  CHG  4  18   1  19  -1  26  -1  29   1
M  END
> <entry id>
41

> <entry name>
pdb5lnz-lig.1

> <PDB format version>
3.0

> <Source Path>
C:\Users\zzy\Desktop\hsp90-33sys\crystal-ligand

> <Source File>
pdb5lnz-lig.pdb

> <Source File Index>
1

> <source file>
ligprep_hsp90-33system.maegz

> <source file index>
8

> <mmshare version>
37011

> <Ionization Penalty>
0.6357

> <Ionization Penalty Charging>
0.3902

> <Ionization Penalty Neutral>
0.2455

> <State Penalty>
0.5812

> <Charging Adjusted Penalty>
0.971335

> <Tot Q>
0

> <Tot abs Q>
4

> <Chemistry Notes>
This compound contains an acetal/aminal-like group ( X-CH(R)-Y where X, Y are N, S, or O) that may be acid/base labile, releasing an aldehyde.

> <i_f3d_flags>
0

> <Force Field>
OPLS_2005

> <Energy>
78.8271

> <Chiralities Consistent>
1

> <Variant>
pdb5lnz-lig-1

> <job name>
ligprep_hsp90-33system

> <subgroupid>
ligprep_hsp90-33system-out1

> <subgroup title>
ligprep_hsp90-33system-out1

> <subgroup collapsed>
0

$$$$
