pdb5od7-lig
                    3D
 Structure written by MMmdl.
 94 99  0  0  1  0            999 V2000
   -0.2101   -0.3735   -4.5517 C   0  0  1  0  0  0
   -0.7508   -2.8395   -5.3466 C   0  0  1  0  0  0
   -1.4118   -3.2263   -4.2827 O   0  5  0  0  0  0
   -0.5782   -0.5675   -3.0601 C   0  0  0  0  0  0
    0.3145    2.0605   -4.0339 C   0  0  0  0  0  0
    0.1407    0.4110   -2.0958 C   0  0  1  0  0  0
   -0.0970    1.8628   -2.5720 C   0  0  0  0  0  0
   -0.7880    0.4386   -7.2051 C   0  0  1  0  0  0
   -0.2812    0.2213   -0.6021 C   0  0  1  0  0  0
   -0.9272   -5.0755   -6.5028 C   0  0  0  0  0  0
   -2.0715   -5.7657   -7.2402 C   0  0  1  0  0  0
   -2.2495   -7.2797   -7.0692 C   0  0  0  0  0  0
   -3.5319   -7.7240   -7.8055 C   0  0  0  0  0  0
   -4.7743   -6.9106   -7.3729 C   0  0  0  0  0  0
   -0.3325   -1.2648   -0.1441 C   0  0  0  0  0  0
    0.0441    0.8901    1.8528 C   0  0  0  0  0  0
    3.9804    2.7272    2.1006 C   0  0  0  0  0  0
    4.5904    3.0660    3.4771 C   0  0  0  0  0  0
   -1.3267   -3.6420   -6.4709 N   0  3  1  0  0  0
   -0.9778   -1.3068   -5.5456 C   0  0  2  0  0  0
   -0.4602    1.1007   -4.9450 C   0  0  1  0  0  0
   -0.5086   -0.9572   -6.8907 N   0  0  0  0  0  0
   -0.0288    1.3093   -6.3198 N   0  0  0  0  0  0
   -0.3703    0.7070   -8.5895 N   0  3  0  0  0  0
   -2.7996   -3.5669   -6.7094 C   0  0  0  0  0  0
   -3.2770   -5.0194   -6.6916 C   0  0  1  0  0  0
   -4.5461   -5.3868   -7.4708 C   0  0  0  0  0  0
   -0.7399   -1.4337    1.3285 C   0  0  0  0  0  0
    0.1254   -0.5839    2.2639 C   0  0  0  0  0  0
    0.5221    1.1088    0.4052 C   0  0  1  0  0  0
    2.3817    0.9605    0.2965 S   0  0  0  0  0  0
    2.6817   -0.6044   -0.2353 O   0  0  0  0  0  0
    2.7879    2.0083   -0.9539 O   0  0  0  0  0  0
    3.2575    1.4408    2.1593 N   0  3  0  0  0  0
    5.4733    2.0041    3.9658 N   0  0  0  0  0  0
    4.7551    0.7279    4.0023 C   0  0  0  0  0  0
    4.1503    0.3630    2.6305 C   0  0  0  0  0  0
    6.7342    1.9282    3.2360 C   0  0  0  0  0  0
    0.8577   -0.5811   -4.6477 H   0  0  0  0  0  0
    0.3276   -2.9931   -5.4199 H   0  0  0  0  0  0
   -1.6589   -0.4917   -2.9325 H   0  0  0  0  0  0
   -0.2901   -1.5765   -2.7768 H   0  0  0  0  0  0
    0.1239    3.0934   -4.3285 H   0  0  0  0  0  0
    1.3889    1.8997   -4.1371 H   0  0  0  0  0  0
    1.2052    0.1999   -2.1872 H   0  0  0  0  0  0
    0.4612    2.5743   -1.9669 H   0  0  0  0  0  0
   -1.1499    2.1223   -2.4539 H   0  0  0  0  0  0
   -1.8565    0.6430   -7.1173 H   0  0  0  0  0  0
   -1.3142    0.5672   -0.5386 H   0  0  0  0  0  0
   -0.8411   -5.4791   -5.4928 H   0  0  0  0  0  0
    0.0337   -5.2097   -6.9996 H   0  0  0  0  0  0
   -1.9695   -5.5463   -8.3053 H   0  0  0  0  0  0
   -1.3833   -7.8110   -7.4651 H   0  0  0  0  0  0
   -2.3202   -7.5348   -6.0110 H   0  0  0  0  0  0
   -3.3862   -7.6073   -8.8801 H   0  0  0  0  0  0
   -3.7073   -8.7867   -7.6358 H   0  0  0  0  0  0
   -5.6351   -7.1966   -7.9781 H   0  0  0  0  0  0
   -5.0270   -7.1685   -6.3435 H   0  0  0  0  0  0
   -1.0669   -1.8125   -0.7341 H   0  0  0  0  0  0
    0.6142   -1.7691   -0.3209 H   0  0  0  0  0  0
   -0.9897    1.2269    1.9426 H   0  0  0  0  0  0
    0.6141    1.5087    2.5448 H   0  0  0  0  0  0
    3.2786    3.5071    1.8045 H   0  0  0  0  0  0
    4.7449    2.6862    1.3242 H   0  0  0  0  0  0
    5.1387    4.0077    3.4299 H   0  0  0  0  0  0
    3.7899    3.2115    4.2037 H   0  0  0  0  0  0
   -2.0454   -1.0865   -5.4910 H   0  0  0  0  0  0
   -1.5256    1.3264   -4.8728 H   0  0  0  0  0  0
   -0.9787   -1.5488   -7.5602 H   0  0  0  0  0  0
    0.9570    1.0993   -6.3907 H   0  0  0  0  0  0
    0.6157    0.5127   -8.6899 H   0  0  0  0  0  0
   -0.5434    1.6783   -8.8072 H   0  0  0  0  0  0
   -3.3424   -2.9583   -5.9855 H   0  0  0  0  0  0
   -2.9603   -3.1224   -7.6920 H   0  0  0  0  0  0
   -3.4205   -5.3046   -5.6469 H   0  0  0  0  0  0
   -4.4472   -5.0911   -8.5160 H   0  0  0  0  0  0
   -5.4065   -4.8500   -7.0700 H   0  0  0  0  0  0
   -1.7863   -1.1501    1.4482 H   0  0  0  0  0  0
   -0.6736   -2.4845    1.6117 H   0  0  0  0  0  0
    1.1577   -0.9329    2.2384 H   0  0  0  0  0  0
   -0.2172   -0.7018    3.2923 H   0  0  0  0  0  0
    0.3111    2.1538    0.1822 H   0  0  0  0  0  0
    2.0626   -0.8427   -0.9090 H   0  0  0  0  0  0
    2.2772    1.8079   -1.7235 H   0  0  0  0  0  0
    5.4246   -0.0613    4.3464 H   0  0  0  0  0  0
    3.9576    0.8006    4.7431 H   0  0  0  0  0  0
    3.5731   -0.5575    2.7149 H   0  0  0  0  0  0
    4.9265    0.1751    1.8882 H   0  0  0  0  0  0
    7.3792    1.1671    3.6762 H   0  0  0  0  0  0
    7.2618    2.8808    3.2939 H   0  0  0  0  0  0
    6.5956    1.6837    2.1834 H   0  0  0  0  0  0
   -0.8959    0.1243   -9.2252 H   0  0  0  0  0  0
   -0.9156   -3.2487   -7.3039 H   0  0  0  0  0  0
    2.5429    1.5474    2.8649 H   0  0  0  0  0  0
  1  4  1  0  0  0
  1 20  1  0  0  0
  1 21  1  0  0  0
  1 39  1  0  0  0
  2  3  1  0  0  0
  2 19  1  0  0  0
  2 20  1  0  0  0
  2 40  1  0  0  0
  4  6  1  0  0  0
  4 41  1  0  0  0
  4 42  1  0  0  0
  5  7  1  0  0  0
  5 21  1  0  0  0
  5 43  1  0  0  0
  5 44  1  0  0  0
  6  7  1  0  0  0
  6  9  1  0  0  0
  6 45  1  0  0  0
  7 46  1  0  0  0
  7 47  1  0  0  0
  8 22  1  0  0  0
  8 23  1  0  0  0
  8 24  1  0  0  0
  8 48  1  0  0  0
  9 15  1  0  0  0
  9 30  1  0  0  0
  9 49  1  0  0  0
 10 11  1  0  0  0
 10 19  1  0  0  0
 10 50  1  0  0  0
 10 51  1  0  0  0
 11 12  1  0  0  0
 11 26  1  0  0  0
 11 52  1  0  0  0
 12 13  1  0  0  0
 12 53  1  0  0  0
 12 54  1  0  0  0
 13 14  1  0  0  0
 13 55  1  0  0  0
 13 56  1  0  0  0
 14 27  1  0  0  0
 14 57  1  0  0  0
 14 58  1  0  0  0
 15 28  1  0  0  0
 15 59  1  0  0  0
 15 60  1  0  0  0
 16 29  1  0  0  0
 16 30  1  0  0  0
 16 61  1  0  0  0
 16 62  1  0  0  0
 17 18  1  0  0  0
 17 34  1  0  0  0
 17 63  1  0  0  0
 17 64  1  0  0  0
 18 35  1  0  0  0
 18 65  1  0  0  0
 18 66  1  0  0  0
 19 25  1  0  0  0
 19 93  1  0  0  0
 20 22  1  0  0  0
 20 67  1  0  0  0
 21 23  1  0  0  0
 21 68  1  0  0  0
 22 69  1  0  0  0
 23 70  1  0  0  0
 24 71  1  0  0  0
 24 72  1  0  0  0
 24 92  1  0  0  0
 25 26  1  0  0  0
 25 73  1  0  0  0
 25 74  1  0  0  0
 26 27  1  0  0  0
 26 75  1  0  0  0
 27 76  1  0  0  0
 27 77  1  0  0  0
 28 29  1  0  0  0
 28 78  1  0  0  0
 28 79  1  0  0  0
 29 80  1  0  0  0
 29 81  1  0  0  0
 30 31  1  0  0  0
 30 82  1  0  0  0
 31 32  1  0  0  0
 31 33  1  0  0  0
 31 34  1  0  0  0
 32 83  1  0  0  0
 33 84  1  0  0  0
 34 37  1  0  0  0
 34 94  1  0  0  0
 35 36  1  0  0  0
 35 38  1  0  0  0
 36 37  1  0  0  0
 36 85  1  0  0  0
 36 86  1  0  0  0
 37 87  1  0  0  0
 37 88  1  0  0  0
 38 89  1  0  0  0
 38 90  1  0  0  0
 38 91  1  0  0  0
M  CHG  4   3  -1  19   1  24   1  34   1
M  END
> <entry id>
51

> <entry name>
pdb5od7-lig.1

> <PDB format version>
3.0

> <Source Path>
C:\Users\zzy\Desktop\hsp90-33sys\crystal-ligand

> <Source File>
pdb5od7-lig.pdb

> <Source File Index>
1

> <source file>
ligprep_hsp90-33system.maegz

> <source file index>
18

> <mmshare version>
37011

> <Ionization Penalty>
0.0553

> <Ionization Penalty Charging>
0.0551

> <Ionization Penalty Neutral>
0.0002

> <State Penalty>
0

> <Charging Adjusted Penalty>
0.0550676

> <Tot Q>
2

> <Tot abs Q>
4

> <Chemistry Notes>
This compound contains an acetal/aminal-like group ( X-CH(R)-Y where X, Y are N, S, or O) that may be acid/base labile, releasing an aldehyde.

> <i_f3d_flags>
0

> <Force Field>
OPLS_2005

> <Energy>
72.0169

> <Chiralities Consistent>
1

> <Variant>
pdb5od7-lig-1

> <job name>
ligprep_hsp90-33system

> <tautomer probability>
1

> <subgroupid>
ligprep_hsp90-33system-out1

> <subgroup title>
ligprep_hsp90-33system-out1

> <subgroup collapsed>
0

$$$$
