pdb5lo6-lig
                    3D
 Structure written by MMmdl.
 87 90  0  0  1  0            999 V2000
   -2.5803   -1.8945   -1.9768 C   0  0  0  0  0  0
   -2.1228   -0.6281   -1.2077 C   0  0  1  0  0  0
   -2.7567   -0.6504    0.2106 C   0  0  0  0  0  0
   -4.3802   -3.4318    0.2212 C   0  0  1  0  0  0
   -0.1145   -0.0570   -2.5589 C   0  0  0  0  0  0
    0.0358    0.1568   -0.0595 C   0  0  2  0  0  0
    1.5854    0.0246    0.0017 C   0  0  1  0  0  0
    2.1871    0.7430    1.2463 C   0  0  0  0  0  0
    1.8648   -2.2342    1.2698 C   0  0  0  0  0  0
    2.0498   -1.4652   -0.0619 C   0  0  2  0  0  0
    2.4856    0.3652    3.8883 C   0  0  1  0  0  0
    3.8777    1.0306    3.8288 C   0  0  0  0  0  0
    5.7470    2.2258    5.2379 C   0  0  0  0  0  0
   -5.0938   -7.2054    2.3396 C   0  0  0  0  0  0
    6.8417    1.2017    4.8772 C   0  0  0  0  0  0
    6.0050    2.7277    6.6723 C   0  0  0  0  0  0
    5.8288    3.4298    4.2786 C   0  0  0  0  0  0
   -4.2847   -0.8233    0.1622 C   0  0  0  0  0  0
   -4.7088   -2.1202   -0.5617 C   0  0  1  0  0  0
   -4.1106   -2.0572   -1.9852 C   0  0  0  0  0  0
   -0.6227   -0.5158   -1.2331 N   0  3  1  0  0  0
   -0.3627    1.5092   -0.2136 O   0  0  0  0  0  0
    3.4118   -1.5162   -0.4411 O   0  0  0  0  0  0
    2.5235   -1.4557    2.4147 C   0  0  1  0  0  0
    1.9292   -0.0696    2.5278 C   0  0  2  0  0  0
    2.4982   -0.8889    4.6656 N   0  0  0  0  0  0
    2.4255   -1.9989    3.7618 N   0  0  0  0  0  0
    4.3409    1.5711    5.1984 C   0  0  0  0  0  0
   -5.0147   -3.4528    1.6326 C   0  0  0  0  0  0
   -4.7452   -4.7693    2.3800 C   0  0  0  0  0  0
   -5.2220   -5.9329    1.5974 N   0  3  1  0  0  0
   -4.5787   -5.9880    0.2646 C   0  0  0  0  0  0
   -4.8462   -4.7003   -0.5319 C   0  0  0  0  0  0
   -2.2487   -1.8675   -3.0129 H   0  0  0  0  0  0
   -2.1175   -2.7799   -1.5399 H   0  0  0  0  0  0
   -2.5231    0.2501   -1.7175 H   0  0  0  0  0  0
   -2.3188   -1.4487    0.8107 H   0  0  0  0  0  0
   -2.5549    0.2827    0.7363 H   0  0  0  0  0  0
   -3.3001   -3.5066    0.3476 H   0  0  0  0  0  0
   -0.3573    0.9897   -2.7448 H   0  0  0  0  0  0
   -0.5357   -0.6335   -3.3794 H   0  0  0  0  0  0
    0.9639   -0.1769   -2.6434 H   0  0  0  0  0  0
   -0.3702   -0.2394    0.8661 H   0  0  0  0  0  0
    1.9922    0.5430   -0.8666 H   0  0  0  0  0  0
    3.2608    0.8585    1.0951 H   0  0  0  0  0  0
    1.7873    1.7519    1.3503 H   0  0  0  0  0  0
    0.8023   -2.3690    1.4760 H   0  0  0  0  0  0
    2.2940   -3.2341    1.1942 H   0  0  0  0  0  0
    1.5126   -1.9955   -0.8475 H   0  0  0  0  0  0
    1.7925    1.0625    4.3601 H   0  0  0  0  0  0
    4.6047    0.3225    3.4328 H   0  0  0  0  0  0
    3.8385    1.8617    3.1264 H   0  0  0  0  0  0
   -4.0484   -7.4326    2.5530 H   0  0  0  0  0  0
   -5.5123   -8.0304    1.7623 H   0  0  0  0  0  0
   -5.6340   -7.1553    3.2855 H   0  0  0  0  0  0
    7.8378    1.6264    5.0072 H   0  0  0  0  0  0
    6.7693    0.8756    3.8398 H   0  0  0  0  0  0
    6.7797    0.3147    5.5087 H   0  0  0  0  0  0
    5.9658    1.9105    7.3935 H   0  0  0  0  0  0
    5.2637    3.4684    6.9746 H   0  0  0  0  0  0
    6.9867    3.1944    6.7616 H   0  0  0  0  0  0
    6.7820    3.9501    4.3792 H   0  0  0  0  0  0
    5.0383    4.1531    4.4806 H   0  0  0  0  0  0
    5.7426    3.1255    3.2355 H   0  0  0  0  0  0
   -4.7045   -0.7655    1.1647 H   0  0  0  0  0  0
   -4.7124    0.0303   -0.3659 H   0  0  0  0  0  0
   -5.7939   -2.0852   -0.6703 H   0  0  0  0  0  0
   -4.5438   -1.2046   -2.5104 H   0  0  0  0  0  0
   -4.3960   -2.9221   -2.5811 H   0  0  0  0  0  0
   -0.4564    1.8967    0.6438 H   0  0  0  0  0  0
    3.5140   -1.0861   -1.2766 H   0  0  0  0  0  0
    3.5882   -1.3644    2.1948 H   0  0  0  0  0  0
    0.8516   -0.1630    2.6657 H   0  0  0  0  0  0
    1.6888   -0.9270    5.2822 H   0  0  0  0  0  0
    3.1917   -2.6432    3.9484 H   0  0  0  0  0  0
    3.6024    2.2937    5.5485 H   0  0  0  0  0  0
    4.3181    0.7562    5.9233 H   0  0  0  0  0  0
   -4.6225   -2.6424    2.2452 H   0  0  0  0  0  0
   -6.0910   -3.2920    1.5557 H   0  0  0  0  0  0
   -3.6781   -4.8751    2.5831 H   0  0  0  0  0  0
   -5.2509   -4.7478    3.3463 H   0  0  0  0  0  0
   -3.5047   -6.1414    0.3814 H   0  0  0  0  0  0
   -4.9632   -6.8444   -0.2910 H   0  0  0  0  0  0
   -5.9110   -4.6261   -0.7569 H   0  0  0  0  0  0
   -4.3326   -4.7927   -1.4876 H   0  0  0  0  0  0
   -6.2097   -5.7920    1.4385 H   0  0  0  0  0  0
   -0.3120   -1.4733   -1.1541 H   0  0  0  0  0  0
  1  2  1  0  0  0
  1 20  1  0  0  0
  1 34  1  0  0  0
  1 35  1  0  0  0
  2  3  1  0  0  0
  2 21  1  0  0  0
  2 36  1  0  0  0
  3 18  1  0  0  0
  3 37  1  0  0  0
  3 38  1  0  0  0
  4 19  1  0  0  0
  4 29  1  0  0  0
  4 33  1  0  0  0
  4 39  1  0  0  0
  5 21  1  0  0  0
  5 40  1  0  0  0
  5 41  1  0  0  0
  5 42  1  0  0  0
  6  7  1  0  0  0
  6 21  1  0  0  0
  6 22  1  0  0  0
  6 43  1  0  0  0
  7  8  1  0  0  0
  7 10  1  0  0  0
  7 44  1  0  0  0
  8 25  1  0  0  0
  8 45  1  0  0  0
  8 46  1  0  0  0
  9 10  1  0  0  0
  9 24  1  0  0  0
  9 47  1  0  0  0
  9 48  1  0  0  0
 10 23  1  0  0  0
 10 49  1  0  0  0
 11 12  1  0  0  0
 11 25  1  0  0  0
 11 26  1  0  0  0
 11 50  1  0  0  0
 12 28  1  0  0  0
 12 51  1  0  0  0
 12 52  1  0  0  0
 13 15  1  0  0  0
 13 16  1  0  0  0
 13 17  1  0  0  0
 13 28  1  0  0  0
 14 31  1  0  0  0
 14 53  1  0  0  0
 14 54  1  0  0  0
 14 55  1  0  0  0
 15 56  1  0  0  0
 15 57  1  0  0  0
 15 58  1  0  0  0
 16 59  1  0  0  0
 16 60  1  0  0  0
 16 61  1  0  0  0
 17 62  1  0  0  0
 17 63  1  0  0  0
 17 64  1  0  0  0
 18 19  1  0  0  0
 18 65  1  0  0  0
 18 66  1  0  0  0
 19 20  1  0  0  0
 19 67  1  0  0  0
 20 68  1  0  0  0
 20 69  1  0  0  0
 21 87  1  0  0  0
 22 70  1  0  0  0
 23 71  1  0  0  0
 24 25  1  0  0  0
 24 27  1  0  0  0
 24 72  1  0  0  0
 25 73  1  0  0  0
 26 27  1  0  0  0
 26 74  1  0  0  0
 27 75  1  0  0  0
 28 76  1  0  0  0
 28 77  1  0  0  0
 29 30  1  0  0  0
 29 78  1  0  0  0
 29 79  1  0  0  0
 30 31  1  0  0  0
 30 80  1  0  0  0
 30 81  1  0  0  0
 31 32  1  0  0  0
 31 86  1  0  0  0
 32 33  1  0  0  0
 32 82  1  0  0  0
 32 83  1  0  0  0
 33 84  1  0  0  0
 33 85  1  0  0  0
M  CHG  2  21   1  31   1
M  END
> <entry id>
43

> <entry name>
pdb5lo6-lig.1

> <PDB format version>
3.0

> <Source Path>
C:\Users\zzy\Desktop\hsp90-33sys\crystal-ligand

> <Source File>
pdb5lo6-lig.pdb

> <Source File Index>
1

> <source file>
ligprep_hsp90-33system.maegz

> <source file index>
10

> <mmshare version>
37011

> <Ionization Penalty>
0.6182

> <Ionization Penalty Charging>
0.0753

> <Ionization Penalty Neutral>
0.5429

> <State Penalty>
0

> <Charging Adjusted Penalty>
0.0753013

> <Tot Q>
2

> <Tot abs Q>
2

> <Chemistry Notes>
This compound contains an acetal/aminal-like group ( X-CH(R)-Y where X, Y are N, S, or O) that may be acid/base labile, releasing an aldehyde.

> <i_f3d_flags>
0

> <Force Field>
OPLS_2005

> <Energy>
91.1148

> <Chiralities Consistent>
1

> <Variant>
pdb5lo6-lig-1

> <job name>
ligprep_hsp90-33system

> <tautomer probability>
1

> <subgroupid>
ligprep_hsp90-33system-out1

> <subgroup title>
ligprep_hsp90-33system-out1

> <subgroup collapsed>
0

$$$$
