pdb5j9x-lig
                    3D
 Structure written by MMmdl.
 68 70  0  0  1  0            999 V2000
   -3.6217   -2.3386    4.4946 C   0  0  0  0  0  0
   -1.0544   -0.1694   -1.3191 C   0  0  2  0  0  0
   -2.5557   -0.1105   -1.0023 C   0  0  0  0  0  0
   -0.2191    0.6665   -0.3099 C   0  0  2  0  0  0
   -2.3168   -0.2017    2.9499 C   0  0  1  0  0  0
   -3.5685    1.4459    3.8297 C   0  0  2  0  0  0
   -4.1878   -0.8909    4.4842 C   0  0  1  0  0  0
   -5.6735   -3.2623    3.3431 C   0  0  0  0  0  0
    1.3244    0.5439   -0.5477 C   0  0  2  0  0  0
    3.7097   -0.5712    1.3142 C   0  0  0  0  0  0
    5.9409   -1.3004    0.2616 C   0  0  0  0  0  0
   -2.8700   -0.5601    0.4314 C   0  0  1  0  0  0
   -2.0902    0.2811    1.4764 C   0  0  2  0  0  0
   -0.5814    0.2096    1.1280 C   0  0  0  0  0  0
   -1.4854    0.5075    3.9293 N   0  0  0  0  0  0
   -3.6945    0.0315    3.4236 N   0  0  0  0  0  0
   -4.2682   -0.4276    0.5840 O   0  0  0  0  0  0
   -0.9140    0.3135   -2.6404 O   0  0  0  0  0  0
   -2.2563    1.5644    4.4431 N   0  0  0  0  0  0
   -4.5237    1.8135    4.8057 O   0  0  0  0  0  0
   -5.7416   -0.9545    4.4409 C   0  0  1  0  0  0
   -6.2835   -1.8539    3.3131 C   0  0  0  0  0  0
    2.1301    1.2209    0.5240 N   0  3  1  0  0  0
    1.6536    1.1405   -1.6697 O   0  5  0  0  0  0
    3.5505    0.7801    0.5904 C   0  0  0  0  0  0
   -4.1415   -3.1989    3.3317 C   0  0  0  0  0  0
    2.0004    2.7024    0.5969 C   0  0  0  0  0  0
    5.1748   -0.9733    1.5504 C   0  0  0  0  0  0
   -6.1862   -1.4235    5.6080 F   0  0  0  0  0  0
   -2.5354   -2.3660    4.5616 H   0  0  0  0  0  0
   -2.9164    0.9096   -1.1494 H   0  0  0  0  0  0
   -6.0122   -3.7900    4.2356 H   0  0  0  0  0  0
    3.2083   -0.5121    2.2811 H   0  0  0  0  0  0
    3.2107   -1.3683    0.7641 H   0  0  0  0  0  0
    6.9507   -1.6423    0.4900 H   0  0  0  0  0  0
    6.0302   -0.4271   -0.3848 H   0  0  0  0  0  0
    5.4440   -2.0892   -0.3043 H   0  0  0  0  0  0
   -0.2273   -0.8109    1.2820 H   0  0  0  0  0  0
   -4.5000    0.4803    0.4626 H   0  0  0  0  0  0
    0.0090    0.4423   -2.8092 H   0  0  0  0  0  0
   -1.8236    2.4540    4.2031 H   0  0  0  0  0  0
   -6.0709   -1.3910    2.3502 H   0  0  0  0  0  0
    4.1306    1.5210    1.1421 H   0  0  0  0  0  0
    3.9805    0.7460   -0.4110 H   0  0  0  0  0  0
   -3.7965   -2.7926    2.3811 H   0  0  0  0  0  0
    2.4888    3.1915   -0.2468 H   0  0  0  0  0  0
    2.4634    3.0768    1.5100 H   0  0  0  0  0  0
    0.9585    3.0177    0.6200 H   0  0  0  0  0  0
    5.6937   -0.1848    2.0970 H   0  0  0  0  0  0
    5.1954   -1.8515    2.1967 H   0  0  0  0  0  0
   -3.9437   -2.8140    5.4220 H   0  0  0  0  0  0
   -0.7194   -1.2074   -1.2991 H   0  0  0  0  0  0
   -3.1030   -0.7349   -1.7106 H   0  0  0  0  0  0
   -0.5242    1.7089   -0.4128 H   0  0  0  0  0  0
   -2.0300   -1.2484    2.9398 H   0  0  0  0  0  0
   -3.6336    2.1134    2.9705 H   0  0  0  0  0  0
   -3.8824   -0.4718    5.4438 H   0  0  0  0  0  0
   -6.0285   -3.8398    2.4891 H   0  0  0  0  0  0
    1.5191   -0.5209   -0.4268 H   0  0  0  0  0  0
   -2.6142   -1.6145    0.5435 H   0  0  0  0  0  0
   -2.3915    1.3233    1.3715 H   0  0  0  0  0  0
   -0.0339    0.8282    1.8371 H   0  0  0  0  0  0
   -1.2579   -0.1150    4.7021 H   0  0  0  0  0  0
   -5.0422    2.5264    4.4654 H   0  0  0  0  0  0
   -6.1928    0.0316    4.3468 H   0  0  0  0  0  0
   -7.3695   -1.9209    3.3815 H   0  0  0  0  0  0
   -3.7307   -4.2062    3.4044 H   0  0  0  0  0  0
    1.7257    0.8946    1.3896 H   0  0  0  0  0  0
  1  7  1  0  0  0
  1 26  1  0  0  0
  1 30  1  0  0  0
  1 51  1  0  0  0
  2  3  1  0  0  0
  2  4  1  0  0  0
  2 18  1  0  0  0
  2 52  1  0  0  0
  3 12  1  0  0  0
  3 31  1  0  0  0
  3 53  1  0  0  0
  4  9  1  0  0  0
  4 14  1  0  0  0
  4 54  1  0  0  0
  5 13  1  0  0  0
  5 15  1  0  0  0
  5 16  1  0  0  0
  5 55  1  0  0  0
  6 16  1  0  0  0
  6 19  1  0  0  0
  6 20  1  0  0  0
  6 56  1  0  0  0
  7 16  1  0  0  0
  7 21  1  0  0  0
  7 57  1  0  0  0
  8 22  1  0  0  0
  8 26  1  0  0  0
  8 32  1  0  0  0
  8 58  1  0  0  0
  9 23  1  0  0  0
  9 24  1  0  0  0
  9 59  1  0  0  0
 10 25  1  0  0  0
 10 28  1  0  0  0
 10 33  1  0  0  0
 10 34  1  0  0  0
 11 28  1  0  0  0
 11 35  1  0  0  0
 11 36  1  0  0  0
 11 37  1  0  0  0
 12 13  1  0  0  0
 12 17  1  0  0  0
 12 60  1  0  0  0
 13 14  1  0  0  0
 13 61  1  0  0  0
 14 38  1  0  0  0
 14 62  1  0  0  0
 15 19  1  0  0  0
 15 63  1  0  0  0
 17 39  1  0  0  0
 18 40  1  0  0  0
 19 41  1  0  0  0
 20 64  1  0  0  0
 21 22  1  0  0  0
 21 29  1  0  0  0
 21 65  1  0  0  0
 22 42  1  0  0  0
 22 66  1  0  0  0
 23 25  1  0  0  0
 23 27  1  0  0  0
 23 68  1  0  0  0
 25 43  1  0  0  0
 25 44  1  0  0  0
 26 45  1  0  0  0
 26 67  1  0  0  0
 27 46  1  0  0  0
 27 47  1  0  0  0
 27 48  1  0  0  0
 28 49  1  0  0  0
 28 50  1  0  0  0
M  CHG  2  23   1  24  -1
M  END
> <entry id>
36

> <entry name>
pdb5j9x-lig.1

> <PDB format version>
3.0

> <Source Path>
C:\Users\zzy\Desktop\hsp90-33sys\crystal-ligand

> <Source File>
pdb5j9x-lig.pdb

> <Source File Index>
1

> <source file>
ligprep_hsp90-33system.maegz

> <source file index>
3

> <mmshare version>
37011

> <Ionization Penalty>
0.2884

> <Ionization Penalty Charging>
0.1607

> <Ionization Penalty Neutral>
0.1277

> <State Penalty>
0

> <Charging Adjusted Penalty>
0.160749

> <Tot Q>
0

> <Tot abs Q>
2

> <Chemistry Notes>
This compound contains an acetal/aminal-like group ( X-CH(R)-Y where X, Y are N, S, or O) that may be acid/base labile, releasing an aldehyde.

> <i_f3d_flags>
0

> <Force Field>
OPLS_2005

> <Energy>
62.0966

> <Chiralities Consistent>
1

> <Variant>
pdb5j9x-lig-1

> <job name>
ligprep_hsp90-33system

> <tautomer probability>
1

> <subgroupid>
ligprep_hsp90-33system-out1

> <subgroup title>
ligprep_hsp90-33system-out1

> <subgroup collapsed>
0

$$$$
