pdb5j20-lig
                    3D
 Structure written by MMmdl.
 70 73  0  0  1  0            999 V2000
   -3.2223   -2.0796   -5.1006 C   0  0  0  0  0  0
   -0.0848   -1.5868    1.3851 C   0  0  1  0  0  0
   -1.6177   -1.5636    1.2508 C   0  0  0  0  0  0
    0.5831   -0.5370    0.4503 C   0  0  1  0  0  0
   -1.9047   -0.9025   -2.6373 C   0  0  1  0  0  0
   -0.2472   -1.4325   -4.1444 C   0  0  2  0  0  0
   -2.3302   -2.8669   -4.1017 C   0  0  1  0  0  0
   -5.0427   -3.8305   -4.8740 C   0  0  0  0  0  0
    2.1452   -0.5145    0.5518 C   0  0  1  0  0  0
    1.7009    2.5453   -0.2693 C   0  0  2  0  0  0
    1.9088    4.0577   -0.2933 C   0  0  0  0  0  0
   -2.0825   -1.7886   -0.1977 C   0  0  2  0  0  0
   -1.4185   -0.7787   -1.1609 C   0  0  1  0  0  0
    0.1163   -0.8349   -0.9959 C   0  0  0  0  0  0
   -1.5881    0.2859   -3.4369 N   0  0  0  0  0  0
   -1.3356   -2.0480   -3.3680 N   0  0  0  0  0  0
   -3.4892   -1.6435   -0.2119 O   0  0  0  0  0  0
    0.2062   -1.3551    2.7491 O   0  0  0  0  0  0
   -0.6690   -0.0750   -4.4391 N   0  0  0  0  0  0
   -0.0412   -2.0962   -5.3766 O   0  0  0  0  0  0
   -3.2025   -3.6961   -3.1306 C   0  0  1  0  0  0
   -4.1667   -4.6217   -3.8912 C   0  0  0  0  0  0
    2.8039    0.2541   -0.5665 N   0  3  1  0  0  0
    2.5154    0.0650    1.6690 O   0  5  0  0  0  0
    2.9976    1.7350   -0.4386 C   0  0  0  0  0  0
   -4.1788   -3.0188   -5.8511 C   0  0  0  0  0  0
    4.0611   -0.3941   -1.0151 C   0  0  0  0  0  0
    0.8382    2.3598   -1.3805 O   0  0  0  0  0  0
   -0.1525    3.3758   -1.3333 C   0  0  0  0  0  0
    0.5453    4.5886   -0.7091 C   0  0  0  0  0  0
   -2.4272   -4.4517   -2.3518 F   0  0  0  0  0  0
   -3.8157   -1.3244   -4.5860 H   0  0  0  0  0  0
   -2.6145   -1.5455   -5.8301 H   0  0  0  0  0  0
    0.2790   -2.5843    1.1358 H   0  0  0  0  0  0
   -2.0556   -2.3259    1.8972 H   0  0  0  0  0  0
   -1.9956   -0.6041    1.6088 H   0  0  0  0  0  0
    0.1804    0.4359    0.7235 H   0  0  0  0  0  0
   -2.9902   -0.9702   -2.6055 H   0  0  0  0  0  0
    0.6785   -1.4080   -3.5713 H   0  0  0  0  0  0
   -1.7735   -3.6102   -4.6731 H   0  0  0  0  0  0
   -5.6893   -4.5118   -5.4275 H   0  0  0  0  0  0
   -5.7006   -3.1592   -4.3206 H   0  0  0  0  0  0
    2.4034   -1.5602    0.3774 H   0  0  0  0  0  0
    1.1910    2.2926    0.6585 H   0  0  0  0  0  0
    2.2446    4.4521    0.6663 H   0  0  0  0  0  0
    2.6499    4.3280   -1.0467 H   0  0  0  0  0  0
   -1.8338   -2.8051   -0.5009 H   0  0  0  0  0  0
   -1.7312    0.2125   -0.8266 H   0  0  0  0  0  0
    0.5544   -0.1189   -1.6866 H   0  0  0  0  0  0
    0.4874   -1.8165   -1.2930 H   0  0  0  0  0  0
   -1.1788    1.0116   -2.8519 H   0  0  0  0  0  0
   -3.8629   -2.2865    0.3713 H   0  0  0  0  0  0
    0.0652   -0.4395    2.9362 H   0  0  0  0  0  0
   -1.1523   -0.0498   -5.3347 H   0  0  0  0  0  0
    0.8487   -2.4131   -5.4010 H   0  0  0  0  0  0
   -3.7780   -3.0512   -2.4688 H   0  0  0  0  0  0
   -4.7972   -5.1632   -3.1853 H   0  0  0  0  0  0
   -3.5978   -5.3747   -4.4382 H   0  0  0  0  0  0
    3.4901    2.0885   -1.3453 H   0  0  0  0  0  0
    3.6891    1.9581    0.3754 H   0  0  0  0  0  0
   -4.8178   -2.4404   -6.5189 H   0  0  0  0  0  0
   -3.6044   -3.6969   -6.4837 H   0  0  0  0  0  0
    4.8100   -0.3713   -0.2225 H   0  0  0  0  0  0
    4.4743    0.1089   -1.8896 H   0  0  0  0  0  0
    3.8915   -1.4335   -1.2982 H   0  0  0  0  0  0
   -0.5418    3.5823   -2.3305 H   0  0  0  0  0  0
   -0.9799    3.0412   -0.7061 H   0  0  0  0  0  0
   -0.0177    4.9482    0.1529 H   0  0  0  0  0  0
    0.6417    5.4136   -1.4157 H   0  0  0  0  0  0
    2.1745    0.1431   -1.3481 H   0  0  0  0  0  0
  1  7  1  0  0  0
  1 26  1  0  0  0
  1 32  1  0  0  0
  1 33  1  0  0  0
  2  3  1  0  0  0
  2  4  1  0  0  0
  2 18  1  0  0  0
  2 34  1  0  0  0
  3 12  1  0  0  0
  3 35  1  0  0  0
  3 36  1  0  0  0
  4  9  1  0  0  0
  4 14  1  0  0  0
  4 37  1  0  0  0
  5 13  1  0  0  0
  5 15  1  0  0  0
  5 16  1  0  0  0
  5 38  1  0  0  0
  6 16  1  0  0  0
  6 19  1  0  0  0
  6 20  1  0  0  0
  6 39  1  0  0  0
  7 16  1  0  0  0
  7 21  1  0  0  0
  7 40  1  0  0  0
  8 22  1  0  0  0
  8 26  1  0  0  0
  8 41  1  0  0  0
  8 42  1  0  0  0
  9 23  1  0  0  0
  9 24  1  0  0  0
  9 43  1  0  0  0
 10 11  1  0  0  0
 10 25  1  0  0  0
 10 28  1  0  0  0
 10 44  1  0  0  0
 11 30  1  0  0  0
 11 45  1  0  0  0
 11 46  1  0  0  0
 12 13  1  0  0  0
 12 17  1  0  0  0
 12 47  1  0  0  0
 13 14  1  0  0  0
 13 48  1  0  0  0
 14 49  1  0  0  0
 14 50  1  0  0  0
 15 19  1  0  0  0
 15 51  1  0  0  0
 17 52  1  0  0  0
 18 53  1  0  0  0
 19 54  1  0  0  0
 20 55  1  0  0  0
 21 22  1  0  0  0
 21 31  1  0  0  0
 21 56  1  0  0  0
 22 57  1  0  0  0
 22 58  1  0  0  0
 23 25  1  0  0  0
 23 27  1  0  0  0
 23 70  1  0  0  0
 25 59  1  0  0  0
 25 60  1  0  0  0
 26 61  1  0  0  0
 26 62  1  0  0  0
 27 63  1  0  0  0
 27 64  1  0  0  0
 27 65  1  0  0  0
 28 29  1  0  0  0
 29 30  1  0  0  0
 29 66  1  0  0  0
 29 67  1  0  0  0
 30 68  1  0  0  0
 30 69  1  0  0  0
M  CHG  2  23   1  24  -1
M  END
> <entry id>
37

> <entry name>
pdb5j20-lig.1

> <PDB format version>
3.0

> <Source Path>
C:\Users\zzy\Desktop\hsp90-33sys\crystal-ligand

> <Source File>
pdb5j20-lig.pdb

> <Source File Index>
1

> <source file>
ligprep_hsp90-33system.maegz

> <source file index>
4

> <mmshare version>
37011

> <Ionization Penalty>
0.2384

> <Ionization Penalty Charging>
0.1108

> <Ionization Penalty Neutral>
0.1277

> <State Penalty>
0

> <Charging Adjusted Penalty>
0.11076

> <Tot Q>
0

> <Tot abs Q>
2

> <Chemistry Notes>
This compound contains an acetal/aminal-like group ( X-CH(R)-Y where X, Y are N, S, or O) that may be acid/base labile, releasing an aldehyde.

> <i_f3d_flags>
0

> <Force Field>
OPLS_2005

> <Energy>
70.6315

> <Chiralities Consistent>
1

> <Variant>
pdb5j20-lig-1

> <job name>
ligprep_hsp90-33system

> <tautomer probability>
1

> <subgroupid>
ligprep_hsp90-33system-out1

> <subgroup title>
ligprep_hsp90-33system-out1

> <subgroup collapsed>
0

$$$$
