pdb6eya-lig
                    3D
 Structure written by MMmdl.
 74 78  0  0  1  0            999 V2000
   -0.1563    0.1237   -0.0645 C   0  0  1  0  0  0
   -0.7647   -0.5035   -1.3763 C   0  0  1  0  0  0
   -2.2976   -0.7112   -1.3128 C   0  0  0  0  0  0
   -0.5234    0.2938   -2.5174 O   0  0  0  0  0  0
   -2.1874   -0.7851    1.1661 C   0  0  1  0  0  0
   -2.6474   -1.5245   -0.0668 C   0  0  1  0  0  0
   -2.9382   -1.5481    2.2636 C   0  0  2  0  0  0
   -2.1569   -2.7513    2.8417 C   0  0  0  0  0  0
   -2.8784   -3.5251    3.9726 C   0  0  2  0  0  0
   -3.1321   -2.6923    5.2495 C   0  0  0  0  0  0
   -1.1163   -3.7297    6.3870 C   0  0  0  0  0  0
   -2.1317   -4.8267    4.3401 C   0  0  0  0  0  0
   -0.1252   -5.8890    5.4879 C   0  0  0  0  0  0
    5.7891    1.8949   -0.2425 C   0  0  0  0  0  0
    4.3788    1.7870   -0.8357 C   0  0  0  0  0  0
    3.4450    3.2260    1.0296 C   0  0  0  0  0  0
    1.9080    1.6625   -0.1698 N   0  3  1  0  0  0
    5.9833    3.2087    0.5423 C   0  0  1  0  0  0
    6.6263    2.7124    2.6401 C   0  0  0  0  0  0
   -0.6584   -0.6674    1.1784 C   0  0  0  0  0  0
    1.4118    0.2566    0.0053 C   0  0  2  0  0  0
    2.0104   -0.4765   -0.9018 O   0  5  0  0  0  0
   -4.0498   -1.8199    0.1905 N   0  0  0  0  0  0
   -4.1980   -1.9485    1.6094 N   0  0  0  0  0  0
   -0.8295   -4.5726    5.1298 C   0  0  2  0  0  0
   -1.8415   -2.4203    6.0402 C   0  0  0  0  0  0
    3.3185    1.8816    0.2872 C   0  0  1  0  0  0
    1.5615    2.3348   -1.4506 C   0  0  0  0  0  0
    4.8687    3.4857    1.5547 C   0  0  2  0  0  0
    5.2417    2.6190    2.5992 O   0  0  0  0  0  0
    7.1099    3.0742    1.3856 O   0  0  0  0  0  0
   -0.5814    1.1226    0.0434 H   0  0  0  0  0  0
   -0.3082   -1.4786   -1.5519 H   0  0  0  0  0  0
   -2.8124    0.2506   -1.2879 H   0  0  0  0  0  0
   -2.6454   -1.2311   -2.2063 H   0  0  0  0  0  0
   -0.9751    1.1163   -2.4107 H   0  0  0  0  0  0
   -2.6016    0.2254    1.1444 H   0  0  0  0  0  0
   -2.1277   -2.4825   -0.1235 H   0  0  0  0  0  0
   -3.1706   -0.8564    3.0723 H   0  0  0  0  0  0
   -1.9269   -3.4447    2.0319 H   0  0  0  0  0  0
   -1.1944   -2.4022    3.2123 H   0  0  0  0  0  0
   -3.8515   -3.8237    3.5811 H   0  0  0  0  0  0
   -3.6332   -1.7542    5.0151 H   0  0  0  0  0  0
   -3.8243   -3.2383    5.8920 H   0  0  0  0  0  0
   -1.7256   -4.3061    7.0848 H   0  0  0  0  0  0
   -0.1842   -3.5039    6.9062 H   0  0  0  0  0  0
   -2.7927   -5.4550    4.9387 H   0  0  0  0  0  0
   -1.9158   -5.3984    3.4367 H   0  0  0  0  0  0
   -0.7508   -6.5142    6.1257 H   0  0  0  0  0  0
    0.8092   -5.7025    6.0181 H   0  0  0  0  0  0
    0.1143   -6.4616    4.5915 H   0  0  0  0  0  0
    5.9565    1.0394    0.4134 H   0  0  0  0  0  0
    6.5375    1.8208   -1.0318 H   0  0  0  0  0  0
    4.2426    2.5784   -1.5733 H   0  0  0  0  0  0
    4.2900    0.8420   -1.3712 H   0  0  0  0  0  0
    3.1721    4.0420    0.3602 H   0  0  0  0  0  0
    2.7390    3.2643    1.8600 H   0  0  0  0  0  0
    6.1061    4.0449   -0.1468 H   0  0  0  0  0  0
    6.9148    3.4804    3.3591 H   0  0  0  0  0  0
    7.0520    1.7572    2.9484 H   0  0  0  0  0  0
   -0.1991   -1.6568    1.1842 H   0  0  0  0  0  0
   -0.3519   -0.1701    2.0994 H   0  0  0  0  0  0
    1.6453    0.0780    1.0550 H   0  0  0  0  0  0
   -4.3264   -2.6878   -0.2642 H   0  0  0  0  0  0
   -4.9560   -1.3372    1.9069 H   0  0  0  0  0  0
   -0.1458   -4.0084    4.4951 H   0  0  0  0  0  0
   -1.1798   -1.7722    5.4652 H   0  0  0  0  0  0
   -2.0781   -1.8776    6.9558 H   0  0  0  0  0  0
    3.5611    1.1114    1.0206 H   0  0  0  0  0  0
    1.9404    1.7878   -2.3145 H   0  0  0  0  0  0
    1.9708    3.3437   -1.4880 H   0  0  0  0  0  0
    0.4838    2.4435   -1.5531 H   0  0  0  0  0  0
    4.9423    4.5117    1.9212 H   0  0  0  0  0  0
    1.3704    2.1672    0.5197 H   0  0  0  0  0  0
  1  2  1  0  0  0
  1 20  1  0  0  0
  1 21  1  0  0  0
  1 32  1  0  0  0
  2  3  1  0  0  0
  2  4  1  0  0  0
  2 33  1  0  0  0
  3  6  1  0  0  0
  3 34  1  0  0  0
  3 35  1  0  0  0
  4 36  1  0  0  0
  5  6  1  0  0  0
  5  7  1  0  0  0
  5 20  1  0  0  0
  5 37  1  0  0  0
  6 23  1  0  0  0
  6 38  1  0  0  0
  7  8  1  0  0  0
  7 24  1  0  0  0
  7 39  1  0  0  0
  8  9  1  0  0  0
  8 40  1  0  0  0
  8 41  1  0  0  0
  9 10  1  0  0  0
  9 12  1  0  0  0
  9 42  1  0  0  0
 10 26  1  0  0  0
 10 43  1  0  0  0
 10 44  1  0  0  0
 11 25  1  0  0  0
 11 26  1  0  0  0
 11 45  1  0  0  0
 11 46  1  0  0  0
 12 25  1  0  0  0
 12 47  1  0  0  0
 12 48  1  0  0  0
 13 25  1  0  0  0
 13 49  1  0  0  0
 13 50  1  0  0  0
 13 51  1  0  0  0
 14 15  1  0  0  0
 14 18  1  0  0  0
 14 52  1  0  0  0
 14 53  1  0  0  0
 15 27  1  0  0  0
 15 54  1  0  0  0
 15 55  1  0  0  0
 16 27  1  0  0  0
 16 29  1  0  0  0
 16 56  1  0  0  0
 16 57  1  0  0  0
 17 21  1  0  0  0
 17 27  1  0  0  0
 17 28  1  0  0  0
 17 74  1  0  0  0
 18 29  1  0  0  0
 18 31  1  0  0  0
 18 58  1  0  0  0
 19 30  1  0  0  0
 19 31  1  0  0  0
 19 59  1  0  0  0
 19 60  1  0  0  0
 20 61  1  0  0  0
 20 62  1  0  0  0
 21 22  1  0  0  0
 21 63  1  0  0  0
 23 24  1  0  0  0
 23 64  1  0  0  0
 24 65  1  0  0  0
 25 66  1  0  0  0
 26 67  1  0  0  0
 26 68  1  0  0  0
 27 69  1  0  0  0
 28 70  1  0  0  0
 28 71  1  0  0  0
 28 72  1  0  0  0
 29 30  1  0  0  0
 29 73  1  0  0  0
M  CHG  2  17   1  22  -1
M  END
> <entry id>
61

> <entry name>
pdb6eya-lig.1

> <PDB format version>
3.0

> <Source Path>
C:\Users\zzy\Desktop\hsp90-33sys\crystal-ligand

> <Source File>
pdb6eya-lig.pdb

> <Source File Index>
1

> <source file>
ligprep_hsp90-33system.maegz

> <source file index>
28

> <mmshare version>
37011

> <Ionization Penalty>
0.535

> <Ionization Penalty Charging>
0.1453

> <Ionization Penalty Neutral>
0.3896

> <State Penalty>
0

> <Charging Adjusted Penalty>
0.145327

> <Tot Q>
0

> <Tot abs Q>
2

> <Chemistry Notes>
This compound contains an acetal/aminal-like group ( X-CH(R)-Y where X, Y are N, S, or O) that may be acid/base labile, releasing an aldehyde.

> <i_f3d_flags>
0

> <Force Field>
OPLS_2005

> <Energy>
80.5291

> <Chiralities Consistent>
1

> <Variant>
pdb6eya-lig-1

> <job name>
ligprep_hsp90-33system

> <tautomer probability>
1

> <subgroupid>
ligprep_hsp90-33system-out1

> <subgroup title>
ligprep_hsp90-33system-out1

> <subgroup collapsed>
0

$$$$
