pdb6ei5-lig
                    3D
 Structure written by MMmdl.
 80 84  0  0  1  0            999 V2000
   -2.0781   -0.7535   -1.2520 C   0  0  1  0  0  0
   -2.3502   -0.8720   -3.9379 C   0  0  1  0  0  0
   -1.7541    0.2934   -3.8759 O   0  5  0  0  0  0
   -0.5340   -0.6998   -1.1488 C   0  0  0  0  0  0
   -2.1883   -0.6212    1.2727 C   0  0  0  0  0  0
   -0.0236    0.0813    0.0893 C   0  0  1  0  0  0
   -0.6608   -0.5198    1.3669 C   0  0  0  0  0  0
   -4.4297   -2.3563   -1.1459 C   0  0  1  0  0  0
    1.5388    0.1255    0.1656 C   0  0  1  0  0  0
   -1.4818   -1.4526   -6.2394 C   0  0  0  0  0  0
   -0.0184   -1.5749   -6.6885 C   0  0  2  0  0  0
    0.2121   -2.0328   -8.1429 C   0  0  0  0  0  0
   -0.0179   -3.5389   -8.3424 C   0  0  0  0  0  0
    0.8012   -4.3582   -7.3356 C   0  0  0  0  0  0
    2.1991    0.7853   -1.0755 C   0  0  0  0  0  0
    3.6481    0.6726    1.4896 C   0  0  0  0  0  0
    1.3140    2.2129    4.1943 C   0  0  0  0  0  0
   -1.4940   -1.7564   -4.7850 N   0  3  1  0  0  0
   -2.6031   -1.5084   -2.5190 C   0  0  2  0  0  0
   -2.6017   -1.4278    0.0354 C   0  0  1  0  0  0
   -4.0515   -1.7012   -2.3898 N   0  0  0  0  0  0
   -4.0522   -1.5213   -0.0161 N   0  0  0  0  0  0
   -5.8903   -2.5271   -1.1297 N   0  3  0  0  0  0
   -0.0926   -2.0114   -4.3591 C   0  0  0  0  0  0
    0.6309   -2.4726   -5.6261 C   0  0  1  0  0  0
    0.4216   -3.9788   -5.8983 C   0  0  0  0  0  0
    3.7337    0.7146   -1.0298 C   0  0  0  0  0  0
    4.2949    1.3230    0.2591 C   0  0  0  0  0  0
    2.1045    0.7688    1.4711 C   0  0  1  0  0  0
    1.5988    2.2161    1.7184 C   0  0  0  0  0  0
    2.0222    2.7678    3.0235 N   0  3  0  0  0  0
   -2.4582    0.2696   -1.2815 H   0  0  0  0  0  0
   -3.2959   -0.9339   -4.4813 H   0  0  0  0  0  0
   -0.1301   -1.7129   -1.1407 H   0  0  0  0  0  0
   -0.1454   -0.2230   -2.0389 H   0  0  0  0  0  0
   -2.5778   -1.0912    2.1767 H   0  0  0  0  0  0
   -2.6200    0.3801    1.2321 H   0  0  0  0  0  0
   -0.3891    1.1029   -0.0173 H   0  0  0  0  0  0
   -0.4266    0.0853    2.2416 H   0  0  0  0  0  0
   -0.2435   -1.5101    1.5539 H   0  0  0  0  0  0
   -3.9620   -3.3394   -1.0730 H   0  0  0  0  0  0
    1.8684   -0.9150    0.1719 H   0  0  0  0  0  0
   -1.8746   -0.4607   -6.4675 H   0  0  0  0  0  0
   -2.1190   -2.1794   -6.7429 H   0  0  0  0  0  0
    0.4204   -0.5806   -6.5854 H   0  0  0  0  0  0
   -0.4204   -1.4605   -8.8222 H   0  0  0  0  0  0
    1.2410   -1.8014   -8.4218 H   0  0  0  0  0  0
   -1.0773   -3.7730   -8.2325 H   0  0  0  0  0  0
    0.2548   -3.8215   -9.3596 H   0  0  0  0  0  0
    0.6280   -5.4228   -7.4960 H   0  0  0  0  0  0
    1.8668   -4.1885   -7.4962 H   0  0  0  0  0  0
    1.8941    0.2915   -1.9954 H   0  0  0  0  0  0
    1.8769    1.8228   -1.1677 H   0  0  0  0  0  0
    3.9365   -0.3791    1.5218 H   0  0  0  0  0  0
    4.0544    1.1146    2.3994 H   0  0  0  0  0  0
    1.6306    2.7342    5.0976 H   0  0  0  0  0  0
    1.5322    1.1536    4.3273 H   0  0  0  0  0  0
    0.2354    2.3363    4.0912 H   0  0  0  0  0  0
   -2.1732   -2.5110   -2.5071 H   0  0  0  0  0  0
   -2.1931   -2.4364    0.1199 H   0  0  0  0  0  0
   -4.3871   -2.2314   -3.1813 H   0  0  0  0  0  0
   -4.4391   -0.5946   -0.1295 H   0  0  0  0  0  0
   -6.3371   -1.6249   -1.2119 H   0  0  0  0  0  0
   -6.1674   -2.9599   -0.2601 H   0  0  0  0  0  0
    0.3858   -1.0942   -4.0174 H   0  0  0  0  0  0
   -0.0365   -2.7392   -3.5495 H   0  0  0  0  0  0
    1.7010   -2.2715   -5.5599 H   0  0  0  0  0  0
   -0.6209   -4.2522   -5.7296 H   0  0  0  0  0  0
    1.0073   -4.5671   -5.1911 H   0  0  0  0  0  0
    4.0490   -0.3269   -1.1049 H   0  0  0  0  0  0
    4.1552    1.2257   -1.8957 H   0  0  0  0  0  0
    4.1270    2.3998    0.2653 H   0  0  0  0  0  0
    5.3759    1.1836    0.2921 H   0  0  0  0  0  0
    1.7720    0.1516    2.3036 H   0  0  0  0  0  0
    1.9664    2.8847    0.9410 H   0  0  0  0  0  0
    0.5122    2.2737    1.6715 H   0  0  0  0  0  0
    1.8470    3.7625    3.0058 H   0  0  0  0  0  0
   -6.1735   -3.1140   -1.9010 H   0  0  0  0  0  0
    3.0153    2.6197    3.1333 H   0  0  0  0  0  0
   -1.9353   -2.6626   -4.7361 H   0  0  0  0  0  0
  1  4  1  0  0  0
  1 19  1  0  0  0
  1 20  1  0  0  0
  1 32  1  0  0  0
  2  3  1  0  0  0
  2 18  1  0  0  0
  2 19  1  0  0  0
  2 33  1  0  0  0
  4  6  1  0  0  0
  4 34  1  0  0  0
  4 35  1  0  0  0
  5  7  1  0  0  0
  5 20  1  0  0  0
  5 36  1  0  0  0
  5 37  1  0  0  0
  6  7  1  0  0  0
  6  9  1  0  0  0
  6 38  1  0  0  0
  7 39  1  0  0  0
  7 40  1  0  0  0
  8 21  1  0  0  0
  8 22  1  0  0  0
  8 23  1  0  0  0
  8 41  1  0  0  0
  9 15  1  0  0  0
  9 29  1  0  0  0
  9 42  1  0  0  0
 10 11  1  0  0  0
 10 18  1  0  0  0
 10 43  1  0  0  0
 10 44  1  0  0  0
 11 12  1  0  0  0
 11 25  1  0  0  0
 11 45  1  0  0  0
 12 13  1  0  0  0
 12 46  1  0  0  0
 12 47  1  0  0  0
 13 14  1  0  0  0
 13 48  1  0  0  0
 13 49  1  0  0  0
 14 26  1  0  0  0
 14 50  1  0  0  0
 14 51  1  0  0  0
 15 27  1  0  0  0
 15 52  1  0  0  0
 15 53  1  0  0  0
 16 28  1  0  0  0
 16 29  1  0  0  0
 16 54  1  0  0  0
 16 55  1  0  0  0
 17 31  1  0  0  0
 17 56  1  0  0  0
 17 57  1  0  0  0
 17 58  1  0  0  0
 18 24  1  0  0  0
 18 80  1  0  0  0
 19 21  1  0  0  0
 19 59  1  0  0  0
 20 22  1  0  0  0
 20 60  1  0  0  0
 21 61  1  0  0  0
 22 62  1  0  0  0
 23 63  1  0  0  0
 23 64  1  0  0  0
 23 78  1  0  0  0
 24 25  1  0  0  0
 24 65  1  0  0  0
 24 66  1  0  0  0
 25 26  1  0  0  0
 25 67  1  0  0  0
 26 68  1  0  0  0
 26 69  1  0  0  0
 27 28  1  0  0  0
 27 70  1  0  0  0
 27 71  1  0  0  0
 28 72  1  0  0  0
 28 73  1  0  0  0
 29 30  1  0  0  0
 29 74  1  0  0  0
 30 31  1  0  0  0
 30 75  1  0  0  0
 30 76  1  0  0  0
 31 77  1  0  0  0
 31 79  1  0  0  0
M  CHG  4   3  -1  18   1  23   1  31   1
M  END
> <entry id>
54

> <entry name>
pdb6ei5-lig.1

> <PDB format version>
3.0

> <Source Path>
C:\Users\zzy\Desktop\hsp90-33sys\crystal-ligand

> <Source File>
pdb6ei5-lig.pdb

> <Source File Index>
1

> <source file>
ligprep_hsp90-33system.maegz

> <source file index>
21

> <mmshare version>
37011

> <Ionization Penalty>
0.0205

> <Ionization Penalty Charging>
0.0205

> <Ionization Penalty Neutral>
0

> <State Penalty>
0

> <Charging Adjusted Penalty>
0.0204777

> <Tot Q>
2

> <Tot abs Q>
4

> <Chemistry Notes>
This compound contains an acetal/aminal-like group ( X-CH(R)-Y where X, Y are N, S, or O) that may be acid/base labile, releasing an aldehyde.

> <i_f3d_flags>
0

> <Force Field>
OPLS_2005

> <Energy>
75.1576

> <Chiralities Consistent>
1

> <Variant>
pdb6ei5-lig-1

> <job name>
ligprep_hsp90-33system

> <tautomer probability>
1

> <subgroupid>
ligprep_hsp90-33system-out1

> <subgroup title>
ligprep_hsp90-33system-out1

> <subgroup collapsed>
0

$$$$
