pdb6elo-lig
                    3D
 Structure written by MMmdl.
 56 58  0  0  1  0            999 V2000
    4.2310    0.6952   -0.9867 C   0  0  2  0  0  0
    3.6514    0.8566    0.4327 C   0  0  0  0  0  0
    2.1134    0.8663    0.4430 C   0  0  2  0  0  0
    4.2138   -0.6724   -3.1532 C   0  0  0  0  0  0
    3.8909   -2.0059   -3.8428 C   0  0  0  0  0  0
    0.0121   -0.6035   -0.2256 C   0  0  2  0  0  0
   -2.0073   -0.0465    0.9261 C   0  0  1  0  0  0
   -0.6482   -0.7405    1.1694 C   0  0  1  0  0  0
   -0.7410   -2.1686    1.8012 C   0  0  1  0  0  0
    0.9211   -2.3396    4.3098 C   0  0  0  0  0  0
    1.5637   -2.3659    2.9158 C   0  0  0  0  0  0
    0.5906   -2.9506    1.8770 C   0  0  0  0  0  0
    1.5588   -0.4043   -0.2559 C   0  0  1  0  0  0
    2.1295   -0.5435   -1.6828 C   0  0  0  0  0  0
    3.6759   -0.5585   -1.7069 C   0  0  2  0  0  0
    5.6369    0.6103   -0.8628 O   0  0  0  0  0  0
    1.6654    2.0627   -0.1658 O   0  0  0  0  0  0
   -0.7030    0.4702   -0.9259 N   0  0  0  0  0  0
   -1.7383    0.9564   -0.0930 N   0  0  0  0  0  0
   -1.3759   -2.1344    3.2175 C   0  0  2  0  0  0
   -0.4179   -1.5849    4.2936 C   0  0  0  0  0  0
   -1.7477   -3.3681    3.5639 F   0  0  0  0  0  0
   -3.1555   -0.9681    0.4648 C   0  0  0  0  0  0
    4.0003    1.5845   -1.5748 H   0  0  0  0  0  0
    3.9999    0.0341    1.0596 H   0  0  0  0  0  0
    4.0330    1.7687    0.8942 H   0  0  0  0  0  0
    1.7899    0.8976    1.4821 H   0  0  0  0  0  0
    5.2982   -0.5627   -3.1508 H   0  0  0  0  0  0
    3.8323    0.1519   -3.7572 H   0  0  0  0  0  0
    4.3741   -2.0598   -4.8185 H   0  0  0  0  0  0
    2.8208   -2.1313   -4.0057 H   0  0  0  0  0  0
    4.2445   -2.8515   -3.2520 H   0  0  0  0  0  0
   -0.2151   -1.5199   -0.7717 H   0  0  0  0  0  0
   -2.3331    0.4662    1.8316 H   0  0  0  0  0  0
   -0.1038   -0.1004    1.8599 H   0  0  0  0  0  0
   -1.3861   -2.7670    1.1585 H   0  0  0  0  0  0
    0.7596   -3.3616    4.6547 H   0  0  0  0  0  0
    1.6005   -1.8773    5.0263 H   0  0  0  0  0  0
    1.8627   -1.3572    2.6327 H   0  0  0  0  0  0
    2.4772   -2.9604    2.9421 H   0  0  0  0  0  0
    0.3731   -3.9815    2.1599 H   0  0  0  0  0  0
    1.0535   -3.0356    0.8964 H   0  0  0  0  0  0
    1.9909   -1.2353    0.2922 H   0  0  0  0  0  0
    1.7465   -1.4654   -2.1197 H   0  0  0  0  0  0
    1.7598    0.2670   -2.3120 H   0  0  0  0  0  0
    4.0112   -1.4368   -1.1525 H   0  0  0  0  0  0
    6.0112    0.5411   -1.7279 H   0  0  0  0  0  0
    1.9608    2.0721   -1.0632 H   0  0  0  0  0  0
   -0.0665    1.2389   -1.1284 H   0  0  0  0  0  0
   -2.5699    1.1386   -0.6514 H   0  0  0  0  0  0
   -2.2955   -1.5512    3.2245 H   0  0  0  0  0  0
   -0.8883   -1.6473    5.2754 H   0  0  0  0  0  0
   -0.2333   -0.5252    4.1167 H   0  0  0  0  0  0
   -3.4583   -1.6715    1.2392 H   0  0  0  0  0  0
   -2.8774   -1.5423   -0.4195 H   0  0  0  0  0  0
   -4.0400   -0.3836    0.2098 H   0  0  0  0  0  0
  1  2  1  0  0  0
  1 15  1  0  0  0
  1 16  1  0  0  0
  1 24  1  0  0  0
  2  3  1  0  0  0
  2 25  1  0  0  0
  2 26  1  0  0  0
  3 13  1  0  0  0
  3 17  1  0  0  0
  3 27  1  0  0  0
  4  5  1  0  0  0
  4 15  1  0  0  0
  4 28  1  0  0  0
  4 29  1  0  0  0
  5 30  1  0  0  0
  5 31  1  0  0  0
  5 32  1  0  0  0
  6  8  1  0  0  0
  6 13  1  0  0  0
  6 18  1  0  0  0
  6 33  1  0  0  0
  7  8  1  0  0  0
  7 19  1  0  0  0
  7 23  1  0  0  0
  7 34  1  0  0  0
  8  9  1  0  0  0
  8 35  1  0  0  0
  9 12  1  0  0  0
  9 20  1  0  0  0
  9 36  1  0  0  0
 10 11  1  0  0  0
 10 21  1  0  0  0
 10 37  1  0  0  0
 10 38  1  0  0  0
 11 12  1  0  0  0
 11 39  1  0  0  0
 11 40  1  0  0  0
 12 41  1  0  0  0
 12 42  1  0  0  0
 13 14  1  0  0  0
 13 43  1  0  0  0
 14 15  1  0  0  0
 14 44  1  0  0  0
 14 45  1  0  0  0
 15 46  1  0  0  0
 16 47  1  0  0  0
 17 48  1  0  0  0
 18 19  1  0  0  0
 18 49  1  0  0  0
 19 50  1  0  0  0
 20 21  1  0  0  0
 20 22  1  0  0  0
 20 51  1  0  0  0
 21 52  1  0  0  0
 21 53  1  0  0  0
 23 54  1  0  0  0
 23 55  1  0  0  0
 23 56  1  0  0  0
M  END
> <entry id>
57

> <entry name>
pdb6elo-lig.1

> <PDB format version>
3.0

> <Source Path>
C:\Users\zzy\Desktop\hsp90-33sys\crystal-ligand

> <Source File>
pdb6elo-lig.pdb

> <Source File Index>
1

> <source file>
ligprep_hsp90-33system.maegz

> <source file index>
24

> <mmshare version>
37011

> <Ionization Penalty>
0.1517

> <Ionization Penalty Charging>
0

> <Ionization Penalty Neutral>
0.1517

> <State Penalty>
0.1273

> <Charging Adjusted Penalty>
0.127253

> <Tot Q>
0

> <Tot abs Q>
0

> <i_f3d_flags>
0

> <Force Field>
OPLS_2005

> <Energy>
55.2884

> <Chiralities Consistent>
1

> <Variant>
pdb6elo-lig-1

> <job name>
ligprep_hsp90-33system

> <subgroupid>
ligprep_hsp90-33system-out1

> <subgroup title>
ligprep_hsp90-33system-out1

> <subgroup collapsed>
0

$$$$
