pdb6ey9-lig
                    3D
 Structure written by MMmdl.
 74 77  0  0  1  0            999 V2000
   -0.4060   -1.1423   -0.4944 C   0  0  1  0  0  0
   -0.9644   -2.3815   -1.2666 C   0  0  2  0  0  0
   -2.3195   -2.8770   -0.7081 C   0  0  0  0  0  0
   -0.0791   -3.4841   -1.2631 O   0  0  0  0  0  0
   -2.5095   -0.9112    0.9211 C   0  0  1  0  0  0
   -3.2002   -1.7246   -0.1896 C   0  0  2  0  0  0
   -3.2331   -1.3829    2.1924 C   0  0  1  0  0  0
   -3.3959   -0.3210    3.3032 C   0  0  0  0  0  0
   -2.0960    0.2682    3.8917 C   0  0  1  0  0  0
   -2.4114    1.3464    4.9477 C   0  0  0  0  0  0
   -1.1287    1.9718    5.5187 C   0  0  0  0  0  0
   -1.1675   -0.8030    4.5056 C   0  0  0  0  0  0
    2.2101   -1.8245    1.3772 C   0  0  0  0  0  0
    3.4024   -1.9730   -0.7625 C   0  0  0  0  0  0
    5.3268   -0.7945    0.4793 C   0  0  0  0  0  0
    6.2038    0.4656    0.5559 C   0  0  0  0  0  0
    1.0663   -1.2591    5.6296 C   0  0  0  0  0  0
   -0.9733   -1.0998    0.9371 C   0  0  0  0  0  0
    1.1184   -0.8007   -0.6433 C   0  0  1  0  0  0
    2.0616   -1.8498   -0.1014 N   0  3  2  0  0  0
    1.3126   -0.7250   -1.9395 O   0  5  0  0  0  0
   -4.4722   -2.1921    0.3574 N   0  0  0  0  0  0
   -4.5280   -1.8909    1.7432 N   0  0  0  0  0  0
   -0.1947    0.8998    6.1008 C   0  0  0  0  0  0
    0.1313   -0.1846    5.0572 C   0  0  2  0  0  0
    4.2943   -0.7053   -0.6684 C   0  0  1  0  0  0
    6.9161    0.7258   -0.7803 C   0  0  1  0  0  0
    5.9079    0.8115   -1.9360 C   0  0  0  0  0  0
    5.0311   -0.4498   -2.0006 C   0  0  0  0  0  0
    7.8532    2.2387   -0.6811 Cl  0  0  0  0  0  0
   -0.8989   -0.2880   -0.9658 H   0  0  0  0  0  0
   -1.1049   -2.0953   -2.3100 H   0  0  0  0  0  0
   -2.8477   -3.4456   -1.4744 H   0  0  0  0  0  0
   -2.1478   -3.5730    0.1154 H   0  0  0  0  0  0
    0.6642   -3.2593   -1.8030 H   0  0  0  0  0  0
   -2.7412    0.1410    0.7482 H   0  0  0  0  0  0
   -3.4201   -1.0670   -1.0316 H   0  0  0  0  0  0
   -2.7008   -2.2443    2.5956 H   0  0  0  0  0  0
   -4.0047    0.4963    2.9135 H   0  0  0  0  0  0
   -3.9779   -0.7580    4.1159 H   0  0  0  0  0  0
   -1.5629    0.7707    3.0862 H   0  0  0  0  0  0
   -3.0313    2.1292    4.5092 H   0  0  0  0  0  0
   -2.9950    0.9102    5.7595 H   0  0  0  0  0  0
   -0.6089    2.5208    4.7326 H   0  0  0  0  0  0
   -1.3821    2.7012    6.2885 H   0  0  0  0  0  0
   -1.6935   -1.3310    5.3021 H   0  0  0  0  0  0
   -0.9084   -1.5552    3.7627 H   0  0  0  0  0  0
    2.5163   -0.8392    1.7294 H   0  0  0  0  0  0
    2.9586   -2.5460    1.7062 H   0  0  0  0  0  0
    1.2968   -2.0947    1.8946 H   0  0  0  0  0  0
    3.9300   -2.8304   -0.3428 H   0  0  0  0  0  0
    3.2564   -2.2593   -1.8049 H   0  0  0  0  0  0
    5.9641   -1.6679    0.3346 H   0  0  0  0  0  0
    4.8303   -0.9367    1.4377 H   0  0  0  0  0  0
    5.5838    1.3241    0.8180 H   0  0  0  0  0  0
    6.9382    0.3575    1.3548 H   0  0  0  0  0  0
    0.5998   -1.7891    6.4606 H   0  0  0  0  0  0
    1.9945   -0.8185    5.9944 H   0  0  0  0  0  0
    1.3287   -1.9956    4.8696 H   0  0  0  0  0  0
   -0.7483   -2.0398    1.4366 H   0  0  0  0  0  0
   -0.4952   -0.3077    1.5100 H   0  0  0  0  0  0
    1.2862    0.0883   -0.0334 H   0  0  0  0  0  0
   -4.5688   -3.1975    0.2292 H   0  0  0  0  0  0
   -4.7948   -2.7223    2.2667 H   0  0  0  0  0  0
    0.7244    1.3686    6.4538 H   0  0  0  0  0  0
   -0.6645    0.4442    6.9736 H   0  0  0  0  0  0
    0.6545    0.2930    4.2272 H   0  0  0  0  0  0
    3.6634    0.1651   -0.4873 H   0  0  0  0  0  0
    7.6309   -0.0745   -0.9764 H   0  0  0  0  0  0
    5.2720    1.6884   -1.8071 H   0  0  0  0  0  0
    6.4340    0.9463   -2.8815 H   0  0  0  0  0  0
    5.6497   -1.3120   -2.2533 H   0  0  0  0  0  0
    4.3076   -0.3412   -2.8097 H   0  0  0  0  0  0
    1.6074   -2.7273   -0.3110 H   0  0  0  0  0  0
  1  2  1  0  0  0
  1 18  1  0  0  0
  1 19  1  0  0  0
  1 31  1  0  0  0
  2  3  1  0  0  0
  2  4  1  0  0  0
  2 32  1  0  0  0
  3  6  1  0  0  0
  3 33  1  0  0  0
  3 34  1  0  0  0
  4 35  1  0  0  0
  5  6  1  0  0  0
  5  7  1  0  0  0
  5 18  1  0  0  0
  5 36  1  0  0  0
  6 22  1  0  0  0
  6 37  1  0  0  0
  7  8  1  0  0  0
  7 23  1  0  0  0
  7 38  1  0  0  0
  8  9  1  0  0  0
  8 39  1  0  0  0
  8 40  1  0  0  0
  9 10  1  0  0  0
  9 12  1  0  0  0
  9 41  1  0  0  0
 10 11  1  0  0  0
 10 42  1  0  0  0
 10 43  1  0  0  0
 11 24  1  0  0  0
 11 44  1  0  0  0
 11 45  1  0  0  0
 12 25  1  0  0  0
 12 46  1  0  0  0
 12 47  1  0  0  0
 13 20  1  0  0  0
 13 48  1  0  0  0
 13 49  1  0  0  0
 13 50  1  0  0  0
 14 20  1  0  0  0
 14 26  1  0  0  0
 14 51  1  0  0  0
 14 52  1  0  0  0
 15 16  1  0  0  0
 15 26  1  0  0  0
 15 53  1  0  0  0
 15 54  1  0  0  0
 16 27  1  0  0  0
 16 55  1  0  0  0
 16 56  1  0  0  0
 17 25  1  0  0  0
 17 57  1  0  0  0
 17 58  1  0  0  0
 17 59  1  0  0  0
 18 60  1  0  0  0
 18 61  1  0  0  0
 19 20  1  0  0  0
 19 21  1  0  0  0
 19 62  1  0  0  0
 20 74  1  0  0  0
 22 23  1  0  0  0
 22 63  1  0  0  0
 23 64  1  0  0  0
 24 25  1  0  0  0
 24 65  1  0  0  0
 24 66  1  0  0  0
 25 67  1  0  0  0
 26 29  1  0  0  0
 26 68  1  0  0  0
 27 28  1  0  0  0
 27 30  1  0  0  0
 27 69  1  0  0  0
 28 29  1  0  0  0
 28 70  1  0  0  0
 28 71  1  0  0  0
 29 72  1  0  0  0
 29 73  1  0  0  0
M  CHG  2  20   1  21  -1
M  END
> <entry id>
60

> <entry name>
pdb6ey9-lig.1

> <PDB format version>
3.0

> <Source Path>
C:\Users\zzy\Desktop\hsp90-33sys\crystal-ligand

> <Source File>
pdb6ey9-lig.pdb

> <Source File Index>
1

> <source file>
ligprep_hsp90-33system.maegz

> <source file index>
27

> <mmshare version>
37011

> <Ionization Penalty>
0.5729

> <Ionization Penalty Charging>
0.1835

> <Ionization Penalty Neutral>
0.3894

> <State Penalty>
0

> <Charging Adjusted Penalty>
0.183471

> <Tot Q>
0

> <Tot abs Q>
2

> <Chemistry Notes>
This compound contains an acetal/aminal-like group ( X-CH(R)-Y where X, Y are N, S, or O) that may be acid/base labile, releasing an aldehyde.

> <i_f3d_flags>
0

> <Force Field>
OPLS_2005

> <Energy>
71.2639

> <Chiralities Consistent>
1

> <Variant>
pdb6ey9-lig-1

> <job name>
ligprep_hsp90-33system

> <tautomer probability>
1

> <subgroupid>
ligprep_hsp90-33system-out1

> <subgroup title>
ligprep_hsp90-33system-out1

> <subgroup collapsed>
0

$$$$
